/*---------------------------------------------------------------------------*\
| =========                 |                                                 |
| \\      /  F ield         | OpenFOAM: The Open Source CFD Toolbox           |
|  \\    /   O peration     | Version:  2112                                  |
|   \\  /    A nd           | Website:  www.openfoam.com                      |
|    \\/     M anipulation  |                                                 |
\*---------------------------------------------------------------------------*/
Build  : _d44c8318-20220111 OPENFOAM=2112 version=2112
Arch   : "LSB;label=32;scalar=64"
Exec   : simpleFoam -parallel -decomposeParDict system/decomposeParDict.6
Date   : Aug 05 2024
Time   : 12:07:57
Host   : 2bd545083385
PID    : 545
I/O    : uncollated
Case   : /home/aimed_user/dexof_work/dir_rough_mesh_8cores_swordfish1_aoa_0
nProcs : 8
Hosts  :
(
    (2bd545083385 8)
)
Pstream initialized with:
    floatTransfer      : 0
    nProcsSimpleSum    : 0
    commsType          : nonBlocking
    polling iterations : 0
trapFpe: Floating point exception trapping enabled (FOAM_SIGFPE).
fileModificationChecking : Monitoring run-time modified files using timeStampMaster (fileModificationSkew 5, maxFileModificationPolls 20)
allowSystemOperations : Allowing user-supplied system call operations

// * * * * * * * * * * * * * * * * * * * * * * * * * * * * * * * * * * * * * //
Create time

Create mesh for time = 0


SIMPLE: convergence criteria
    field p	 tolerance 0.0001
    field U	 tolerance 0.0001
    field "(k|epsilon|omega|f|v2|nuTilda)"	 tolerance 0.0001

Reading field p

Reading field U

Reading/calculating face flux field phi

Selecting incompressible transport model Newtonian
Selecting turbulence model type RAS
Selecting RAS turbulence model kOmegaSST
Selecting patchDistMethod meshWave
RAS
{
    RASModel        kOmegaSST;
    turbulence      on;
    printCoeffs     on;
    alphaK1         0.85;
    alphaK2         1;
    alphaOmega1     0.5;
    alphaOmega2     0.856;
    gamma1          0.55555556;
    gamma2          0.44;
    beta1           0.075;
    beta2           0.0828;
    betaStar        0.09;
    a1              0.31;
    b1              1;
    c1              10;
    F3              false;
    decayControl    false;
    kInf            0;
    omegaInf        0;
}

No MRF models present

No finite volume options present

Starting time loop

forceCoeffs forceCoeffs_cl:
    p: p
    U: U
    rho: rhoInf
    Freestream density (rhoInf) set to 1027
    Not including porosity effects
    Fields will be written

forceCoeffs forceCoeffs_cd:
    p: p
    U: U
    rho: rhoInf
    Freestream density (rhoInf) set to 1027
    Not including porosity effects

forces force_computation:
    p: p
    U: U
    rho: rhoInf
    Freestream density (rhoInf) set to 1027
    Not including porosity effects

Time = 1

smoothSolver:  Solving for Ux, Initial residual = 1, Final residual = 0.060588829, No Iterations 2
smoothSolver:  Solving for Uy, Initial residual = 1, Final residual = 0.032023616, No Iterations 3
smoothSolver:  Solving for Uz, Initial residual = 1, Final residual = 0.034270933, No Iterations 3
GAMG:  Solving for p, Initial residual = 1, Final residual = 0.0046687925, No Iterations 8
GAMG:  Solving for p, Initial residual = 0.038388355, Final residual = 0.0003185129, No Iterations 2
GAMG:  Solving for p, Initial residual = 0.0043495222, Final residual = 3.2887592e-05, No Iterations 4
GAMG:  Solving for p, Initial residual = 0.00099256121, Final residual = 8.6787198e-06, No Iterations 3
GAMG:  Solving for p, Initial residual = 0.00023783106, Final residual = 1.179251e-06, No Iterations 4
GAMG:  Solving for p, Initial residual = 6.8224793e-05, Final residual = 4.4488268e-07, No Iterations 3
time step continuity errors : sum local = 3.7410516e-08, global = 2.0316268e-09, cumulative = 2.0316268e-09
smoothSolver:  Solving for omega, Initial residual = 0.69675123, Final residual = 0.047678054, No Iterations 1
smoothSolver:  Solving for k, Initial residual = 1, Final residual = 0.09083931, No Iterations 1
ExecutionTime = 3.44 s  ClockTime = 3 s

forceCoeffs forceCoeffs_cl execute:
    Coefficients
        Cd       : 3.7357002	(pressure: 3.7141313	viscous: 0.021568899)
        Cs       : 0.0013924072	(pressure: 0.0013913173	viscous: 1.0899122e-06)
        Cl       : 0.002096264	(pressure: 0.0020952092	viscous: 1.0547969e-06)
        CmRoll       : 9.3326663e-08	(pressure: 9.1676998e-08	viscous: 1.649665e-09)
        CmPitch       : 0.00032406061	(pressure: 0.00032409182	viscous: -3.1213328e-08)
        CmYaw       : -0.00059914692	(pressure: -0.00059912294	viscous: -2.398369e-08)
        Cd(f)    : 1.8678502
        Cd(r)    : 1.86785
        Cs(f)    : 9.7056687e-05
        Cs(r)    : 0.0012953505
        Cl(f)    : 0.0013721926
        Cl(r)    : 0.00072407139
forceCoeffs forceCoeffs_cd execute:
    Coefficients
        Cd       : 15.947443	(pressure: 15.855367	viscous: 0.092076123)
        Cs       : 0.0059440892	(pressure: 0.0059394365	viscous: 4.6527591e-06)
        Cl       : 0.0089488047	(pressure: 0.0089443018	viscous: 4.5028542e-06)
        CmRoll       : 3.9840501e-07	(pressure: 3.9136271e-07	viscous: 7.0423046e-09)
        CmPitch       : 0.0013833921	(pressure: 0.0013835254	viscous: -1.3324752e-07)
        CmYaw       : -0.0025577164	(pressure: -0.002557614	viscous: -1.023847e-07)
        Cd(f)    : 7.9737221
        Cd(r)    : 7.9737213
        Cs(f)    : 0.00041432822
        Cs(r)    : 0.005529761
        Cl(f)    : 0.0058577945
        Cl(r)    : 0.0030910102
forces force_computation write:
    Sum of forces
        Total    : (6769.5571 3.7986932 -2.5232165)
        Pressure : (6730.4716 3.7967817 -2.5212414)
        Viscous  : (39.085549 0.0019114242 -0.0019750575)
    Sum of moments
        Total    : (0.00062895585 -4.0378274 -2.1839398)
        Pressure : (0.00061783827 -4.0376658 -2.1841501)
        Viscous  : (1.1117578e-05 -0.00016163314 0.0002103558)


Time = 2

smoothSolver:  Solving for Ux, Initial residual = 0.20793046, Final residual = 0.0098155423, No Iterations 2
smoothSolver:  Solving for Uy, Initial residual = 0.53741364, Final residual = 0.024721494, No Iterations 2
smoothSolver:  Solving for Uz, Initial residual = 0.53734126, Final residual = 0.024805191, No Iterations 2
GAMG:  Solving for p, Initial residual = 0.15993886, Final residual = 0.00074372115, No Iterations 5
GAMG:  Solving for p, Initial residual = 0.0074310344, Final residual = 4.1453004e-05, No Iterations 3
GAMG:  Solving for p, Initial residual = 0.00087862914, Final residual = 8.6310473e-06, No Iterations 3
GAMG:  Solving for p, Initial residual = 0.00016219636, Final residual = 7.0354919e-07, No Iterations 4
GAMG:  Solving for p, Initial residual = 3.8327168e-05, Final residual = 2.6503048e-07, No Iterations 3
GAMG:  Solving for p, Initial residual = 9.4379961e-06, Final residual = 9.0607704e-08, No Iterations 3
time step continuity errors : sum local = 1.1016187e-08, global = 2.9473124e-09, cumulative = 4.9789392e-09
smoothSolver:  Solving for omega, Initial residual = 0.2168249, Final residual = 0.0032908928, No Iterations 2
smoothSolver:  Solving for k, Initial residual = 0.27797985, Final residual = 0.0061764669, No Iterations 2
ExecutionTime = 5.81 s  ClockTime = 6 s

forceCoeffs forceCoeffs_cl execute:
    Coefficients
        Cd       : 3.3690473	(pressure: 3.3496521	viscous: 0.019395213)
        Cs       : 0.002022701	(pressure: 0.0020200465	viscous: 2.654536e-06)
        Cl       : 0.0024646975	(pressure: 0.0024627445	viscous: 1.9530902e-06)
        CmRoll       : 5.3706394e-08	(pressure: 5.4294455e-08	viscous: -5.8806098e-10)
        CmPitch       : 0.00052047916	(pressure: 0.00051954557	viscous: 9.3358818e-07)
        CmYaw       : -0.00074721119	(pressure: -0.00074622768	viscous: -9.8350644e-07)
        Cd(f)    : 1.6845237
        Cd(r)    : 1.6845236
        Cs(f)    : 0.00026413933
        Cs(r)    : 0.0017585617
        Cl(f)    : 0.0017528279
        Cl(r)    : 0.00071186961
forceCoeffs forceCoeffs_cd execute:
    Coefficients
        Cd       : 14.382228	(pressure: 14.299431	viscous: 0.082796811)
        Cs       : 0.0086347696	(pressure: 0.0086234375	viscous: 1.1332029e-05)
        Cl       : 0.010521622	(pressure: 0.010513284	viscous: 8.3376059e-06)
        CmRoll       : 2.2926885e-07	(pressure: 2.3177924e-07	viscous: -2.5103913e-09)
        CmPitch       : 0.0022218892	(pressure: 0.0022179038	viscous: 3.9854228e-06)
        CmYaw       : -0.0031897924	(pressure: -0.0031855939	viscous: -4.1985204e-06)
        Cd(f)    : 7.1911142
        Cd(r)    : 7.1911137
        Cs(f)    : 0.0011275923
        Cs(r)    : 0.0075071772
        Cl(f)    : 0.0074827001
        Cl(r)    : 0.0030389217
forces force_computation write:
    Sum of forces
        Total    : (6105.1361 4.466341 -3.6653879)
        Pressure : (6069.9896 4.4628017 -3.6605775)
        Viscous  : (35.146558 0.0035392444 -0.004810352)
    Sum of moments
        Total    : (0.0003619432 -5.0356761 -3.5076622)
        Pressure : (0.00036590631 -5.029048 -3.5013705)
        Viscous  : (-3.963116e-06 -0.0066281393 -0.0062917255)


Time = 3

smoothSolver:  Solving for Ux, Initial residual = 0.049141408, Final residual = 0.0023681808, No Iterations 2
smoothSolver:  Solving for Uy, Initial residual = 0.25914172, Final residual = 0.012177266, No Iterations 2
smoothSolver:  Solving for Uz, Initial residual = 0.25904516, Final residual = 0.012206325, No Iterations 2
GAMG:  Solving for p, Initial residual = 0.27370667, Final residual = 0.002591033, No Iterations 5
GAMG:  Solving for p, Initial residual = 0.011616185, Final residual = 8.2606328e-05, No Iterations 3
GAMG:  Solving for p, Initial residual = 0.0015520258, Final residual = 8.3396814e-06, No Iterations 4
GAMG:  Solving for p, Initial residual = 0.00032882086, Final residual = 2.6031622e-06, No Iterations 3
GAMG:  Solving for p, Initial residual = 8.2860982e-05, Final residual = 7.7821119e-07, No Iterations 3
GAMG:  Solving for p, Initial residual = 2.348356e-05, Final residual = 2.1469635e-07, No Iterations 3
time step continuity errors : sum local = 4.4760362e-08, global = 3.989969e-09, cumulative = 8.9689082e-09
smoothSolver:  Solving for omega, Initial residual = 0.098536818, Final residual = 0.0025582398, No Iterations 2
smoothSolver:  Solving for k, Initial residual = 0.12809576, Final residual = 0.0041820596, No Iterations 2
ExecutionTime = 8.27 s  ClockTime = 8 s

forceCoeffs forceCoeffs_cl execute:
    Coefficients
        Cd       : 0.87685279	(pressure: 0.85963706	viscous: 0.01721573)
        Cs       : 0.0021787054	(pressure: 0.002172217	viscous: 6.4884092e-06)
        Cl       : 0.0019348284	(pressure: 0.0019310876	viscous: 3.7407355e-06)
        CmRoll       : 1.1752689e-08	(pressure: 3.2976581e-09	viscous: 8.455031e-09)
        CmPitch       : 0.00072225526	(pressure: 0.00072045791	viscous: 1.797348e-06)
        CmYaw       : -0.00071165948	(pressure: -0.00070911219	viscous: -2.547292e-06)
        Cd(f)    : 0.43842641
        Cd(r)    : 0.43842638
        Cs(f)    : 0.00037769321
        Cs(r)    : 0.0018010122
        Cl(f)    : 0.0016896694
        Cl(r)    : 0.00024515892
forceCoeffs forceCoeffs_cd execute:
    Coefficients
        Cd       : 3.7432234	(pressure: 3.6697306	viscous: 0.073492751)
        Cs       : 0.0093007413	(pressure: 0.0092730427	viscous: 2.7698566e-05)
        Cl       : 0.0082596472	(pressure: 0.0082436783	viscous: 1.5968939e-05)
        CmRoll       : 5.017141e-08	(pressure: 1.4077472e-08	viscous: 3.6093937e-08)
        CmPitch       : 0.0030832573	(pressure: 0.0030755845	viscous: 7.6727531e-06)
        CmYaw       : -0.0030380247	(pressure: -0.0030271505	viscous: -1.0874212e-05)
        Cd(f)    : 1.8716117
        Cd(r)    : 1.8716116
        Cs(f)    : 0.001612346
        Cs(r)    : 0.0076883953
        Cl(f)    : 0.0072130809
        Cl(r)    : 0.0010465663
forces force_computation write:
    Sum of forces
        Total    : (1588.9672 3.5061516 -3.9480873)
        Pressure : (1557.7701 3.4993729 -3.9363295)
        Viscous  : (31.197062 0.0067786817 -0.011757811)
    Sum of moments
        Total    : (7.9204831e-05 -4.7960827 -4.8674907)
        Pressure : (2.2223889e-05 -4.7789157 -4.8553779)
        Viscous  : (5.6980942e-05 -0.01716695 -0.012112857)


Time = 4

smoothSolver:  Solving for Ux, Initial residual = 0.011808189, Final residual = 0.00061473122, No Iterations 2
smoothSolver:  Solving for Uy, Initial residual = 0.070911918, Final residual = 0.0031723107, No Iterations 2
smoothSolver:  Solving for Uz, Initial residual = 0.070895858, Final residual = 0.0031827994, No Iterations 2
GAMG:  Solving for p, Initial residual = 0.072924123, Final residual = 0.00036873923, No Iterations 6
GAMG:  Solving for p, Initial residual = 0.011197745, Final residual = 5.7981764e-05, No Iterations 3
GAMG:  Solving for p, Initial residual = 0.0013934991, Final residual = 7.0793219e-06, No Iterations 4
GAMG:  Solving for p, Initial residual = 0.00029499358, Final residual = 2.2115231e-06, No Iterations 3
GAMG:  Solving for p, Initial residual = 7.3945491e-05, Final residual = 7.0574472e-07, No Iterations 3
GAMG:  Solving for p, Initial residual = 2.1612481e-05, Final residual = 1.9718672e-07, No Iterations 3
time step continuity errors : sum local = 3.9997077e-08, global = 5.5311125e-10, cumulative = 9.5220194e-09
smoothSolver:  Solving for omega, Initial residual = 0.053835623, Final residual = 0.0020391355, No Iterations 2
smoothSolver:  Solving for k, Initial residual = 0.072717608, Final residual = 0.0031039066, No Iterations 2
ExecutionTime = 10.78 s  ClockTime = 11 s

forceCoeffs forceCoeffs_cl execute:
    Coefficients
        Cd       : -1.4997544	(pressure: -1.5164213	viscous: 0.016666925)
        Cs       : 0.0011270892	(pressure: 0.0011194007	viscous: 7.6884665e-06)
        Cl       : 0.00057443637	(pressure: 0.00056919448	viscous: 5.2418855e-06)
        CmRoll       : -2.0335892e-08	(pressure: -4.4510627e-08	viscous: 2.4174735e-08)
        CmPitch       : 0.00058699728	(pressure: 0.00058481416	viscous: 2.1831225e-06)
        CmYaw       : -0.00043076119	(pressure: -0.00042796111	viscous: -2.800082e-06)
        Cd(f)    : -0.74987723
        Cd(r)    : -0.74987719
        Cs(f)    : 0.00013278341
        Cs(r)    : 0.0009943058
        Cl(f)    : 0.00087421547
        Cl(r)    : -0.0002997791
forceCoeffs forceCoeffs_cd execute:
    Coefficients
        Cd       : -6.402347	(pressure: -6.4734969	viscous: 0.071149939)
        Cs       : 0.0048114652	(pressure: 0.0047786436	viscous: 3.2821527e-05)
        Cl       : 0.0024522288	(pressure: 0.0024298515	viscous: 2.2377243e-05)
        CmRoll       : -8.6812502e-08	(pressure: -1.9001276e-07	viscous: 1.0320026e-07)
        CmPitch       : 0.0025058504	(pressure: 0.0024965308	viscous: 9.3195978e-06)
        CmYaw       : -0.0018388895	(pressure: -0.0018269361	viscous: -1.1953355e-05)
        Cd(f)    : -3.2011736
        Cd(r)    : -3.2011734
        Cs(f)    : 0.00056684312
        Cs(r)    : 0.0042446221
        Cl(f)    : 0.0037319648
        Cl(r)    : -0.0012797361
forces force_computation write:
    Sum of forces
        Total    : (-2717.743 1.0409507 -2.042427)
        Pressure : (-2747.9456 1.0314518 -2.0284945)
        Viscous  : (30.202557 0.0094989537 -0.013932465)
    Sum of moments
        Total    : (-0.00013704956 -2.9030264 -3.9559474)
        Pressure : (-0.00029997021 -2.8841559 -3.9412347)
        Viscous  : (0.00016292065 -0.018870577 -0.014712705)


Time = 5

smoothSolver:  Solving for Ux, Initial residual = 0.01808888, Final residual = 0.00077818954, No Iterations 2
smoothSolver:  Solving for Uy, Initial residual = 0.12559014, Final residual = 0.0056859428, No Iterations 2
smoothSolver:  Solving for Uz, Initial residual = 0.12534495, Final residual = 0.005688038, No Iterations 2
GAMG:  Solving for p, Initial residual = 0.03336285, Final residual = 0.00017182707, No Iterations 5
GAMG:  Solving for p, Initial residual = 0.011854155, Final residual = 6.1702954e-05, No Iterations 3
GAMG:  Solving for p, Initial residual = 0.0015299941, Final residual = 1.4396914e-05, No Iterations 3
GAMG:  Solving for p, Initial residual = 0.00031370064, Final residual = 2.8383465e-06, No Iterations 3
GAMG:  Solving for p, Initial residual = 8.214694e-05, Final residual = 7.320275e-07, No Iterations 3
GAMG:  Solving for p, Initial residual = 2.3047228e-05, Final residual = 2.0118902e-07, No Iterations 3
time step continuity errors : sum local = 1.4511839e-08, global = -2.1906469e-09, cumulative = 7.3313725e-09
smoothSolver:  Solving for omega, Initial residual = 0.03332468, Final residual = 0.0016355413, No Iterations 2
smoothSolver:  Solving for k, Initial residual = 0.04703702, Final residual = 0.002427424, No Iterations 2
ExecutionTime = 13.05 s  ClockTime = 13 s

forceCoeffs forceCoeffs_cl execute:
    Coefficients
        Cd       : -2.1236739	(pressure: -2.1411375	viscous: 0.017463589)
        Cs       : -0.00011206043	(pressure: -0.00011551236	viscous: 3.4519254e-06)
        Cl       : -0.00015177125	(pressure: -0.00015533365	viscous: 3.5624035e-06)
        CmRoll       : 8.1636828e-09	(pressure: -3.2908592e-08	viscous: 4.1072274e-08)
        CmPitch       : 0.00032873557	(pressure: 0.0003276885	viscous: 1.0470701e-06)
        CmYaw       : -0.00015893568	(pressure: -0.0001579156	viscous: -1.0200829e-06)
        Cd(f)    : -1.061837
        Cd(r)    : -1.061837
        Cs(f)    : -0.0002149659
        Cs(r)    : 0.00010290547
        Cl(f)    : 0.00025284995
        Cl(r)    : -0.00040462119
forceCoeffs forceCoeffs_cd execute:
    Coefficients
        Cd       : -9.0658158	(pressure: -9.1403667	viscous: 0.074550845)
        Cs       : -0.00047837817	(pressure: -0.00049311419	viscous: 1.4736029e-05)
        Cl       : -0.00064790086	(pressure: -0.00066310851	viscous: 1.5207652e-05)
        CmRoll       : 3.4850192e-08	(pressure: -1.4048448e-07	viscous: 1.7533467e-07)
        CmPitch       : 0.0014033492	(pressure: 0.0013988793	viscous: 4.4698692e-06)
        CmYaw       : -0.00067848533	(pressure: -0.00067413067	viscous: -4.3546626e-06)
        Cd(f)    : -4.5329079
        Cd(r)    : -4.532908
        Cs(f)    : -0.00091767442
        Cs(r)    : 0.00043929625
        Cl(f)    : 0.0010793988
        Cl(r)    : -0.0017272996
forces force_computation write:
    Sum of forces
        Total    : (-3848.3634 -0.27502853 0.20306755)
        Pressure : (-3880.0096 -0.28148405 0.20932287)
        Viscous  : (31.646214 0.0064555217 -0.0062553216)
    Sum of moments
        Total    : (5.501746e-05 -1.0711143 -2.2154457)
        Pressure : (-0.00022178068 -1.0642397 -2.2083892)
        Viscous  : (0.00027679814 -0.0068746387 -0.0070565135)


Time = 6

smoothSolver:  Solving for Ux, Initial residual = 0.032137874, Final residual = 0.0013183578, No Iterations 2
smoothSolver:  Solving for Uy, Initial residual = 0.2172649, Final residual = 0.010185856, No Iterations 2
smoothSolver:  Solving for Uz, Initial residual = 0.21663786, Final residual = 0.010179237, No Iterations 2
GAMG:  Solving for p, Initial residual = 0.051316073, Final residual = 0.00040884783, No Iterations 5
GAMG:  Solving for p, Initial residual = 0.013457939, Final residual = 0.00011035731, No Iterations 3
GAMG:  Solving for p, Initial residual = 0.0016706286, Final residual = 1.0464817e-05, No Iterations 4
GAMG:  Solving for p, Initial residual = 0.00033341632, Final residual = 3.0357808e-06, No Iterations 3
GAMG:  Solving for p, Initial residual = 7.9757107e-05, Final residual = 3.8992372e-07, No Iterations 4
GAMG:  Solving for p, Initial residual = 2.2233321e-05, Final residual = 1.7321163e-07, No Iterations 3
time step continuity errors : sum local = 1.5020256e-08, global = -1.2464296e-09, cumulative = 6.0849429e-09
smoothSolver:  Solving for omega, Initial residual = 0.02260184, Final residual = 0.0013224886, No Iterations 2
smoothSolver:  Solving for k, Initial residual = 0.033143576, Final residual = 0.0019630764, No Iterations 2
ExecutionTime = 15.5 s  ClockTime = 15 s

forceCoeffs forceCoeffs_cl execute:
    Coefficients
        Cd       : -1.0652679	(pressure: -1.0838449	viscous: 0.018577035)
        Cs       : -0.00065209644	(pressure: -0.00065121433	viscous: -8.8211372e-07)
        Cl       : -0.00014573814	(pressure: -0.00014626795	viscous: 5.2981404e-07)
        CmRoll       : 5.9010091e-08	(pressure: 9.1246908e-09	viscous: 4.98854e-08)
        CmPitch       : 3.7691642e-05	(pressure: 3.8337848e-05	viscous: -6.4620538e-07)
        CmYaw       : -1.7347221e-05	(pressure: -1.8449101e-05	viscous: 1.1018796e-06)
        Cd(f)    : -0.53263389
        Cd(r)    : -0.53263401
        Cs(f)    : -0.00034339544
        Cs(r)    : -0.000308701
        Cl(f)    : -3.5177428e-05
        Cl(r)    : -0.00011056071
forceCoeffs forceCoeffs_cd execute:
    Coefficients
        Cd       : -4.5475543	(pressure: -4.6268584	viscous: 0.079304065)
        Cs       : -0.0027837542	(pressure: -0.0027799885	viscous: -3.7656819e-06)
        Cl       : -0.00062214595	(pressure: -0.00062440769	viscous: 2.2617392e-06)
        CmRoll       : 2.5190996e-07	(pressure: 3.8952668e-08	viscous: 2.1295729e-07)
        CmPitch       : 0.00016090299	(pressure: 0.0001636616	viscous: -2.7586057e-06)
        CmYaw       : -7.4054077e-05	(pressure: -7.8757924e-05	viscous: 4.703847e-06)
        Cd(f)    : -2.2737769
        Cd(r)    : -2.2737774
        Cs(f)    : -0.0014659312
        Cs(r)    : -0.001317823
        Cl(f)    : -0.00015016998
        Cl(r)    : -0.00047197596
forces force_computation write:
    Sum of forces
        Total    : (-1930.399 -0.26409578 1.1816805)
        Pressure : (-1964.0629 -0.26505587 1.180082)
        Viscous  : (33.663916 0.00096008946 0.0015985006)
    Sum of moments
        Total    : (0.00039768637 -0.11690803 -0.25401507)
        Pressure : (6.1493976e-05 -0.12433392 -0.25837004)
        Viscous  : (0.00033619239 0.0074258907 0.0043549682)


Time = 7

smoothSolver:  Solving for Ux, Initial residual = 0.02851006, Final residual = 0.0011630729, No Iterations 2
smoothSolver:  Solving for Uy, Initial residual = 0.13797382, Final residual = 0.006613475, No Iterations 2
smoothSolver:  Solving for Uz, Initial residual = 0.13749752, Final residual = 0.0066123436, No Iterations 2
GAMG:  Solving for p, Initial residual = 0.10474439, Final residual = 0.00098821101, No Iterations 5
GAMG:  Solving for p, Initial residual = 0.01163754, Final residual = 9.1509599e-05, No Iterations 3
GAMG:  Solving for p, Initial residual = 0.0014289454, Final residual = 9.0862012e-06, No Iterations 4
GAMG:  Solving for p, Initial residual = 0.00030073766, Final residual = 2.4620824e-06, No Iterations 3
GAMG:  Solving for p, Initial residual = 7.1105917e-05, Final residual = 3.3204421e-07, No Iterations 4
GAMG:  Solving for p, Initial residual = 1.997908e-05, Final residual = 1.3103618e-07, No Iterations 3
time step continuity errors : sum local = 1.5961897e-08, global = -8.7022598e-10, cumulative = 5.214717e-09
smoothSolver:  Solving for omega, Initial residual = 0.016388552, Final residual = 0.0010805682, No Iterations 2
smoothSolver:  Solving for k, Initial residual = 0.024744263, Final residual = 0.0016249702, No Iterations 2
ExecutionTime = 18.02 s  ClockTime = 18 s

forceCoeffs forceCoeffs_cl execute:
    Coefficients
        Cd       : 0.40385596	(pressure: 0.38467292	viscous: 0.019183034)
        Cs       : -0.00048486208	(pressure: -0.0004826383	viscous: -2.2237818e-06)
        Cl       : 4.6552374e-05	(pressure: 4.742522e-05	viscous: -8.7284645e-07)
        CmRoll       : 1.1092451e-07	(pressure: 5.2617703e-08	viscous: 5.8306802e-08)
        CmPitch       : -0.00016775344	(pressure: -0.00016627409	viscous: -1.4793524e-06)
        CmYaw       : 2.2303404e-05	(pressure: 2.0306693e-05	viscous: 1.9967109e-06)
        Cd(f)    : 0.20192809
        Cd(r)    : 0.20192787
        Cs(f)    : -0.00022012764
        Cs(r)    : -0.00026473445
        Cl(f)    : -0.00014447726
        Cl(r)    : 0.00019102963
forceCoeffs forceCoeffs_cd execute:
    Coefficients
        Cd       : 1.7240329	(pressure: 1.6421419	viscous: 0.081891034)
        Cs       : -0.0020698424	(pressure: -0.0020603492	viscous: -9.4931694e-06)
        Cl       : 0.00019872884	(pressure: 0.00020245496	viscous: -3.7261206e-06)
        CmRoll       : 4.7352897e-07	(pressure: 2.246213e-07	viscous: 2.4890767e-07)
        CmPitch       : -0.00071612774	(pressure: -0.00070981249	viscous: -6.3152521e-06)
        CmYaw       : 9.5211674e-05	(pressure: 8.6687855e-05	viscous: 8.5238194e-06)
        Cd(f)    : 0.86201692
        Cd(r)    : 0.86201597
        Cs(f)    : -0.00093970952
        Cs(r)    : -0.0011301329
        Cl(f)    : -0.00061676332
        Cl(r)    : 0.00081549216
forces force_computation write:
    Sum of forces
        Total    : (731.83762 0.084358738 0.87863088)
        Pressure : (697.07556 0.085940445 0.87460111)
        Viscous  : (34.762063 -0.0015817072 0.0040297715)
    Sum of moments
        Total    : (0.00074755288 0.1503092 1.1305398)
        Pressure : (0.00035460618 0.13685278 1.12057)
        Viscous  : (0.0003929467 0.013456422 0.009969791)


Time = 8

smoothSolver:  Solving for Ux, Initial residual = 0.021669717, Final residual = 0.00087897707, No Iterations 2
smoothSolver:  Solving for Uy, Initial residual = 0.12931836, Final residual = 0.0060600732, No Iterations 2
smoothSolver:  Solving for Uz, Initial residual = 0.1288624, Final residual = 0.0060465287, No Iterations 2
GAMG:  Solving for p, Initial residual = 0.38781545, Final residual = 0.002271326, No Iterations 5
GAMG:  Solving for p, Initial residual = 0.022537628, Final residual = 0.00014468178, No Iterations 3
GAMG:  Solving for p, Initial residual = 0.002801443, Final residual = 1.4220857e-05, No Iterations 4
GAMG:  Solving for p, Initial residual = 0.00056145428, Final residual = 3.8446144e-06, No Iterations 3
GAMG:  Solving for p, Initial residual = 0.00013061198, Final residual = 1.1521636e-06, No Iterations 3
GAMG:  Solving for p, Initial residual = 3.5612884e-05, Final residual = 3.0009362e-07, No Iterations 3
time step continuity errors : sum local = 1.0158966e-08, global = 1.4836447e-09, cumulative = 6.6983616e-09
smoothSolver:  Solving for omega, Initial residual = 0.012462578, Final residual = 0.00089082969, No Iterations 2
smoothSolver:  Solving for k, Initial residual = 0.019275072, Final residual = 0.0013680056, No Iterations 2
ExecutionTime = 20.41 s  ClockTime = 20 s

forceCoeffs forceCoeffs_cl execute:
    Coefficients
        Cd       : 1.1618084	(pressure: 1.1427832	viscous: 0.019025177)
        Cs       : -3.5933748e-06	(pressure: -4.0691088e-06	viscous: 4.7573401e-07)
        Cl       : 0.00037829618	(pressure: 0.00037714678	viscous: 1.1493973e-06)
        CmRoll       : 1.2783961e-07	(pressure: 7.5127965e-08	viscous: 5.271165e-08)
        CmPitch       : -0.00011651763	(pressure: -0.00011593516	viscous: -5.8247379e-07)
        CmYaw       : 4.8505472e-05	(pressure: 4.7485766e-05	viscous: 1.0197053e-06)
        Cd(f)    : 0.58090431
        Cd(r)    : 0.58090405
        Cs(f)    : 4.6708784e-05
        Cs(r)    : -5.0302159e-05
        Cl(f)    : 7.2630461e-05
        Cl(r)    : 0.00030566572
forceCoeffs forceCoeffs_cd execute:
    Coefficients
        Cd       : 4.9596788	(pressure: 4.8784617	viscous: 0.081217152)
        Cs       : -1.5339866e-05	(pressure: -1.7370742e-05	viscous: 2.0308753e-06)
        Cl       : 0.00161492	(pressure: 0.0016100133	viscous: 4.9066967e-06)
        CmRoll       : 5.4573839e-07	(pressure: 3.2071604e-07	viscous: 2.2502236e-07)
        CmPitch       : -0.00049740563	(pressure: -0.00049491909	viscous: -2.48654e-06)
        CmYaw       : 0.00020706647	(pressure: 0.00020271342	viscous: 4.3530509e-06)
        Cd(f)    : 2.47984
        Cd(r)    : 2.4798389
        Cs(f)    : 0.00019939654
        Cs(r)    : -0.00021473641
        Cl(f)    : 0.00031005437
        Cl(r)    : 0.0013048656
forces force_computation write:
    Sum of forces
        Total    : (2105.3424 0.68552011 0.0065116457)
        Pressure : (2070.8664 0.68343726 0.0073737354)
        Viscous  : (34.476006 0.0020828519 -0.00086208967)
    Sum of moments
        Total    : (0.00086154878 0.32689265 0.78524659)
        Pressure : (0.00050630946 0.32002055 0.78132113)
        Viscous  : (0.00035523932 0.0068720943 0.0039254623)


Time = 9

smoothSolver:  Solving for Ux, Initial residual = 0.02648354, Final residual = 0.001169759, No Iterations 2
smoothSolver:  Solving for Uy, Initial residual = 0.13699695, Final residual = 0.0062402757, No Iterations 2
smoothSolver:  Solving for Uz, Initial residual = 0.13663972, Final residual = 0.0062329746, No Iterations 2
GAMG:  Solving for p, Initial residual = 0.22518627, Final residual = 0.0011064781, No Iterations 5
GAMG:  Solving for p, Initial residual = 0.0058470425, Final residual = 4.0788003e-05, No Iterations 3
GAMG:  Solving for p, Initial residual = 0.00067014431, Final residual = 3.4636869e-06, No Iterations 4
GAMG:  Solving for p, Initial residual = 0.00012032786, Final residual = 9.6563484e-07, No Iterations 3
GAMG:  Solving for p, Initial residual = 2.6594727e-05, Final residual = 2.4848428e-07, No Iterations 3
GAMG:  Solving for p, Initial residual = 6.629865e-06, Final residual = 6.5741811e-08, No Iterations 3
time step continuity errors : sum local = 6.6106648e-09, global = 9.7305939e-11, cumulative = 6.7956676e-09
smoothSolver:  Solving for omega, Initial residual = 0.0098198184, Final residual = 0.00074076049, No Iterations 2
smoothSolver:  Solving for k, Initial residual = 0.015505329, Final residual = 0.0011662399, No Iterations 2
ExecutionTime = 22.81 s  ClockTime = 23 s

forceCoeffs forceCoeffs_cl execute:
    Coefficients
        Cd       : 0.93037217	(pressure: 0.9119649	viscous: 0.018407262)
        Cs       : 0.00059250374	(pressure: 0.00058911872	viscous: 3.3850182e-06)
        Cl       : 0.0005671132	(pressure: 0.00056084703	viscous: 6.2661749e-06)
        CmRoll       : 1.3331377e-07	(pressure: 6.7138254e-08	viscous: 6.617552e-08)
        CmPitch       : 8.6777773e-05	(pressure: 8.5160751e-05	viscous: 1.6170226e-06)
        CmYaw       : 1.485092e-06	(pressure: 1.7146041e-06	viscous: -2.2951212e-07)
        Cd(f)    : 0.46518622
        Cd(r)    : 0.46518595
        Cs(f)    : 0.00029773696
        Cs(r)    : 0.00029476678
        Cl(f)    : 0.00037033438
        Cl(r)    : 0.00019677883
forceCoeffs forceCoeffs_cd execute:
    Coefficients
        Cd       : 3.9716938	(pressure: 3.8931145	viscous: 0.078579319)
        Cs       : 0.0025293571	(pressure: 0.0025149067	viscous: 1.4450406e-05)
        Cl       : 0.0024209667	(pressure: 0.0023942168	viscous: 2.6749864e-05)
        CmRoll       : 5.691072e-07	(pressure: 2.8660852e-07	viscous: 2.8249868e-07)
        CmPitch       : 0.00037044826	(pressure: 0.0003635453	viscous: 6.9029566e-06)
        CmYaw       : 6.3397541e-06	(pressure: 7.3195253e-06	viscous: -9.7977124e-07)
        Cd(f)    : 1.9858475
        Cd(r)    : 1.9858464
        Cs(f)    : 0.0012710183
        Cs(r)    : 0.0012583388
        Cl(f)    : 0.0015809316
        Cl(r)    : 0.00084003509
forces force_computation write:
    Sum of forces
        Total    : (1685.951 1.0276802 -1.0736911)
        Pressure : (1652.5947 1.0163251 -1.067557)
        Viscous  : (33.356267 0.011355095 -0.0061340773)
    Sum of moments
        Total    : (0.00089844075 0.010008472 -0.58482095)
        Pressure : (0.00045246445 0.011555222 -0.57392336)
        Viscous  : (0.0004459763 -0.0015467497 -0.010897591)


Time = 10

smoothSolver:  Solving for Ux, Initial residual = 0.016816463, Final residual = 0.00075781068, No Iterations 2
smoothSolver:  Solving for Uy, Initial residual = 0.07616975, Final residual = 0.0034924248, No Iterations 2
smoothSolver:  Solving for Uz, Initial residual = 0.075943801, Final residual = 0.0034906107, No Iterations 2
GAMG:  Solving for p, Initial residual = 0.14524151, Final residual = 0.0011275786, No Iterations 5
GAMG:  Solving for p, Initial residual = 0.0052023539, Final residual = 4.2056164e-05, No Iterations 3
GAMG:  Solving for p, Initial residual = 0.00066042708, Final residual = 4.0214911e-06, No Iterations 4
GAMG:  Solving for p, Initial residual = 0.00013490044, Final residual = 1.1746372e-06, No Iterations 3
GAMG:  Solving for p, Initial residual = 3.1185453e-05, Final residual = 1.4460794e-07, No Iterations 4
GAMG:  Solving for p, Initial residual = 8.4444422e-06, Final residual = 6.1076002e-08, No Iterations 3
time step continuity errors : sum local = 9.7290488e-09, global = 1.5846244e-09, cumulative = 8.380292e-09
smoothSolver:  Solving for omega, Initial residual = 0.0079589082, Final residual = 0.00062229721, No Iterations 2
smoothSolver:  Solving for k, Initial residual = 0.012784658, Final residual = 0.0010045013, No Iterations 2
ExecutionTime = 25.33 s  ClockTime = 25 s

forceCoeffs forceCoeffs_cl execute:
    Coefficients
        Cd       : 0.19429689	(pressure: 0.17661391	viscous: 0.017682987)
        Cs       : 0.00070822152	(pressure: 0.00070267954	viscous: 5.5419799e-06)
        Cl       : 0.00025146315	(pressure: 0.00024379078	viscous: 7.6723756e-06)
        CmRoll       : 9.6640419e-08	(pressure: 4.583488e-08	viscous: 5.0805539e-08)
        CmPitch       : 0.00016069407	(pressure: 0.00015841382	viscous: 2.2802487e-06)
        CmYaw       : -2.9132985e-05	(pressure: -2.790589e-05	viscous: -1.2270955e-06)
        Cd(f)    : 0.097148543
        Cd(r)    : 0.09714835
        Cs(f)    : 0.00032497777
        Cs(r)    : 0.00038324375
        Cl(f)    : 0.00028642564
        Cl(r)    : -3.4962491e-05
forceCoeffs forceCoeffs_cd execute:
    Coefficients
        Cd       : 0.82943988	(pressure: 0.75395244	viscous: 0.075487436)
        Cs       : 0.0030233482	(pressure: 0.0029996899	viscous: 2.3658325e-05)
        Cl       : 0.0010734787	(pressure: 0.0010407258	viscous: 3.2752836e-05)
        CmRoll       : 4.125512e-07	(pressure: 1.956659e-07	viscous: 2.168853e-07)
        CmPitch       : 0.00068599176	(pressure: 0.00067625754	viscous: 9.7342225e-06)
        CmYaw       : -0.00012436668	(pressure: -0.0001191283	viscous: -5.2383851e-06)
        Cd(f)    : 0.41472035
        Cd(r)    : 0.41471953
        Cs(f)    : 0.0013873074
        Cs(r)    : 0.0016360408
        Cl(f)    : 0.0012227311
        Cl(r)    : -0.00014925243
forces force_computation write:
    Sum of forces
        Total    : (352.09033 0.45568276 -1.2833862)
        Pressure : (320.04654 0.44177945 -1.2733434)
        Viscous  : (32.043789 0.013903307 -0.010042762)
    Sum of moments
        Total    : (0.00065128822 -0.19633576 -1.0829646)
        Pressure : (0.00030889474 -0.188066 -1.0675973)
        Viscous  : (0.00034239348 -0.0082697578 -0.015367267)


Time = 11

smoothSolver:  Solving for Ux, Initial residual = 0.009242108, Final residual = 0.00038977657, No Iterations 2
smoothSolver:  Solving for Uy, Initial residual = 0.046937795, Final residual = 0.0019487937, No Iterations 2
smoothSolver:  Solving for Uz, Initial residual = 0.046710323, Final residual = 0.0019406124, No Iterations 2
GAMG:  Solving for p, Initial residual = 0.044913637, Final residual = 0.00030901992, No Iterations 5
GAMG:  Solving for p, Initial residual = 0.004922287, Final residual = 3.590568e-05, No Iterations 3
GAMG:  Solving for p, Initial residual = 0.00063388481, Final residual = 3.4711259e-06, No Iterations 4
GAMG:  Solving for p, Initial residual = 0.00013313339, Final residual = 1.0066803e-06, No Iterations 3
GAMG:  Solving for p, Initial residual = 3.1502557e-05, Final residual = 2.8949787e-07, No Iterations 3
GAMG:  Solving for p, Initial residual = 8.5560805e-06, Final residual = 7.8395949e-08, No Iterations 3
time step continuity errors : sum local = 9.837525e-09, global = 1.1894653e-09, cumulative = 9.5697573e-09
smoothSolver:  Solving for omega, Initial residual = 0.0066066874, Final residual = 0.00052924908, No Iterations 2
smoothSolver:  Solving for k, Initial residual = 0.010765862, Final residual = 0.00087395685, No Iterations 2
ExecutionTime = 27.76 s  ClockTime = 28 s

forceCoeffs forceCoeffs_cl execute:
    Coefficients
        Cd       : -0.38399429	(pressure: -0.40111845	viscous: 0.017124164)
        Cs       : 0.00041087103	(pressure: 0.00040484668	viscous: 6.0243497e-06)
        Cl       : 0.00017566339	(pressure: 0.00017206591	viscous: 3.5974763e-06)
        CmRoll       : 7.4804963e-08	(pressure: 2.210883e-08	viscous: 5.2696134e-08)
        CmPitch       : 0.00021656547	(pressure: 0.00021600874	viscous: 5.5672962e-07)
        CmYaw       : -6.7983643e-05	(pressure: -6.6448878e-05	viscous: -1.5347646e-06)
        Cd(f)    : -0.19199707
        Cd(r)    : -0.19199722
        Cs(f)    : 0.00013745187
        Cs(r)    : 0.00027341916
        Cl(f)    : 0.00030439716
        Cl(r)    : -0.00012873377
forceCoeffs forceCoeffs_cd execute:
    Coefficients
        Cd       : -1.6392448	(pressure: -1.7123467	viscous: 0.07310186)
        Cs       : 0.0017539797	(pressure: 0.0017282622	viscous: 2.5717529e-05)
        Cl       : 0.00074989476	(pressure: 0.00073453738	viscous: 1.5357375e-05)
        CmRoll       : 3.1933717e-07	(pressure: 9.4381051e-08	viscous: 2.2495612e-07)
        CmPitch       : 0.00092450286	(pressure: 0.00092212622	viscous: 2.3766399e-06)
        CmYaw       : -0.00029021743	(pressure: -0.00028366562	viscous: -6.5518031e-06)
        Cd(f)    : -0.81962208
        Cd(r)    : -0.81962272
        Cs(f)    : 0.00058677245
        Cs(r)    : 0.0011672073
        Cl(f)    : 0.0012994502
        Cl(r)    : -0.00054955548
forces force_computation write:
    Sum of forces
        Total    : (-695.84579 0.31832409 -0.74454982)
        Pressure : (-726.87692 0.31180501 -0.73363294)
        Viscous  : (31.031132 0.0065190781 -0.010916877)
    Sum of moments
        Total    : (0.00050413266 -0.45816177 -1.4594984)
        Pressure : (0.00014899791 -0.44781854 -1.4557464)
        Viscous  : (0.00035513475 -0.01034323 -0.0037519647)


Time = 12

smoothSolver:  Solving for Ux, Initial residual = 0.010456426, Final residual = 0.00043081983, No Iterations 2
smoothSolver:  Solving for Uy, Initial residual = 0.074355061, Final residual = 0.0033622361, No Iterations 2
smoothSolver:  Solving for Uz, Initial residual = 0.074093207, Final residual = 0.0033474412, No Iterations 2
GAMG:  Solving for p, Initial residual = 0.033833747, Final residual = 0.00027234045, No Iterations 4
GAMG:  Solving for p, Initial residual = 0.0084134834, Final residual = 7.0332871e-05, No Iterations 3
GAMG:  Solving for p, Initial residual = 0.0011232999, Final residual = 4.7935261e-06, No Iterations 4
GAMG:  Solving for p, Initial residual = 0.00020608378, Final residual = 1.3587616e-06, No Iterations 3
GAMG:  Solving for p, Initial residual = 4.4472917e-05, Final residual = 3.441766e-07, No Iterations 3
GAMG:  Solving for p, Initial residual = 1.0849446e-05, Final residual = 8.9590031e-08, No Iterations 3
time step continuity errors : sum local = 3.9300706e-09, global = -7.4120242e-10, cumulative = 8.8285549e-09
smoothSolver:  Solving for omega, Initial residual = 0.0055915479, Final residual = 0.00045550626, No Iterations 2
smoothSolver:  Solving for k, Initial residual = 0.0092230182, Final residual = 0.00076688268, No Iterations 2
ExecutionTime = 30.12 s  ClockTime = 30 s

forceCoeffs forceCoeffs_cl execute:
    Coefficients
        Cd       : -0.47149046	(pressure: -0.48832912	viscous: 0.01683866)
        Cs       : 8.8985441e-05	(pressure: 8.3507116e-05	viscous: 5.4783246e-06)
        Cl       : 0.0002428483	(pressure: 0.00023786277	viscous: 4.9855313e-06)
        CmRoll       : 5.045999e-08	(pressure: -2.7600646e-09	viscous: 5.3220055e-08)
        CmPitch       : 0.00019386711	(pressure: 0.00019264782	viscous: 1.2192867e-06)
        CmYaw       : -0.00014366676	(pressure: -0.00014228726	viscous: -1.3795014e-06)
        Cd(f)    : -0.23574518
        Cd(r)    : -0.23574528
        Cs(f)    : -9.9174039e-05
        Cs(r)    : 0.00018815948
        Cl(f)    : 0.00031529126
        Cl(r)    : -7.244296e-05
forceCoeffs forceCoeffs_cd execute:
    Coefficients
        Cd       : -2.0127599	(pressure: -2.0846429	viscous: 0.071883063)
        Cs       : 0.00037987264	(pressure: 0.00035648605	viscous: 2.3386585e-05)
        Cl       : 0.0010367024	(pressure: 0.0010154196	viscous: 2.1282885e-05)
        CmRoll       : 2.1541018e-07	(pressure: -1.1782523e-08	viscous: 2.271927e-07)
        CmPitch       : 0.00082760516	(pressure: 0.00082240011	viscous: 5.2050499e-06)
        CmYaw       : -0.00061330337	(pressure: -0.00060741437	viscous: -5.8889951e-06)
        Cd(f)    : -1.0063797
        Cd(r)    : -1.0063801
        Cs(f)    : -0.00042336705
        Cs(r)    : 0.00080323969
        Cl(f)    : 0.0013459564
        Cl(r)    : -0.00030925394
forces force_computation write:
    Sum of forces
        Total    : (-854.39982 0.44007156 -0.16125278)
        Pressure : (-884.91358 0.43103716 -0.15132536)
        Viscous  : (30.513762 0.0090344078 -0.009927411)
    Sum of moments
        Total    : (0.00034006472 -0.96821257 -1.3065275)
        Pressure : (-1.8600888e-05 -0.9589157 -1.2983104)
        Viscous  : (0.00035866561 -0.0092968657 -0.008217132)


Time = 13

smoothSolver:  Solving for Ux, Initial residual = 0.011082024, Final residual = 0.00044078569, No Iterations 2
smoothSolver:  Solving for Uy, Initial residual = 0.067274329, Final residual = 0.0030864403, No Iterations 2
smoothSolver:  Solving for Uz, Initial residual = 0.0670333, Final residual = 0.003073136, No Iterations 2
GAMG:  Solving for p, Initial residual = 0.039533723, Final residual = 0.00023097738, No Iterations 5
GAMG:  Solving for p, Initial residual = 0.018946978, Final residual = 0.00014585849, No Iterations 3
GAMG:  Solving for p, Initial residual = 0.0022170545, Final residual = 1.2354351e-05, No Iterations 4
GAMG:  Solving for p, Initial residual = 0.00041668241, Final residual = 3.5944157e-06, No Iterations 3
GAMG:  Solving for p, Initial residual = 9.3840551e-05, Final residual = 9.1211368e-07, No Iterations 3
GAMG:  Solving for p, Initial residual = 2.4473258e-05, Final residual = 1.2539204e-07, No Iterations 4
time step continuity errors : sum local = 3.2114228e-09, global = -3.1104356e-10, cumulative = 8.5175113e-09
smoothSolver:  Solving for omega, Initial residual = 0.0048022437, Final residual = 0.00039627702, No Iterations 2
smoothSolver:  Solving for k, Initial residual = 0.0080152742, Final residual = 0.00067812478, No Iterations 2
ExecutionTime = 32.65 s  ClockTime = 33 s

forceCoeffs forceCoeffs_cl execute:
    Coefficients
        Cd       : -0.17131607	(pressure: -0.18803353	viscous: 0.016717456)
        Cs       : -0.0001050739	(pressure: -0.0001089754	viscous: 3.9014952e-06)
        Cl       : 0.00034813411	(pressure: 0.00034278994	viscous: 5.3441753e-06)
        CmRoll       : 3.6733854e-08	(pressure: -1.0463418e-08	viscous: 4.7197272e-08)
        CmPitch       : 0.00011998637	(pressure: 0.00011879818	viscous: 1.1881868e-06)
        CmYaw       : -0.00016817091	(pressure: -0.00016755603	viscous: -6.1488005e-07)
        Cd(f)    : -0.085657999
        Cd(r)    : -0.085658073
        Cs(f)    : -0.00022070786
        Cs(r)    : 0.00011563396
        Cl(f)    : 0.00029405342
        Cl(r)    : 5.4080691e-05
forceCoeffs forceCoeffs_cd execute:
    Coefficients
        Cd       : -0.73133636	(pressure: -0.80270201	viscous: 0.071365652)
        Cs       : -0.00044855315	(pressure: -0.00046520836	viscous: 1.6655211e-05)
        Cl       : 0.0014861602	(pressure: 0.0014633463	viscous: 2.2813911e-05)
        CmRoll       : 1.5681426e-07	(pressure: -4.46676e-08	viscous: 2.0148186e-07)
        CmPitch       : 0.00051221342	(pressure: 0.00050714114	viscous: 5.0722863e-06)
        CmYaw       : -0.00071790989	(pressure: -0.00071528501	viscous: -2.62488e-06)
        Cd(f)    : -0.36566802
        Cd(r)    : -0.36566834
        Cs(f)    : -0.00094218647
        Cs(r)    : 0.00049363332
        Cl(f)    : 0.0012552935
        Cl(r)    : 0.00023086669
forces force_computation write:
    Sum of forces
        Total    : (-310.4462 0.63086266 0.19040708)
        Pressure : (-340.74033 0.62117834 0.19747708)
        Viscous  : (30.294126 0.0096843156 -0.0070699984)
    Sum of moments
        Total    : (0.00024756025 -1.1333533 -0.80862343)
        Pressure : (-7.051605e-05 -1.1292094 -0.80061589)
        Viscous  : (0.0003180763 -0.0041438576 -0.0080075402)


Time = 14

smoothSolver:  Solving for Ux, Initial residual = 0.0083517418, Final residual = 0.00031570026, No Iterations 2
smoothSolver:  Solving for Uy, Initial residual = 0.044730355, Final residual = 0.0020059341, No Iterations 2
smoothSolver:  Solving for Uz, Initial residual = 0.044522091, Final residual = 0.0019964392, No Iterations 2
GAMG:  Solving for p, Initial residual = 0.052401866, Final residual = 0.0003240192, No Iterations 5
GAMG:  Solving for p, Initial residual = 0.017176276, Final residual = 0.00013356646, No Iterations 3
GAMG:  Solving for p, Initial residual = 0.0021291397, Final residual = 1.233431e-05, No Iterations 4
GAMG:  Solving for p, Initial residual = 0.00041809878, Final residual = 3.5606763e-06, No Iterations 3
GAMG:  Solving for p, Initial residual = 9.5250099e-05, Final residual = 9.5185716e-07, No Iterations 3
GAMG:  Solving for p, Initial residual = 2.5011209e-05, Final residual = 1.1582815e-07, No Iterations 4
time step continuity errors : sum local = 2.7138777e-09, global = -4.4157944e-11, cumulative = 8.4733534e-09
smoothSolver:  Solving for omega, Initial residual = 0.0041734447, Final residual = 0.00034838829, No Iterations 2
smoothSolver:  Solving for k, Initial residual = 0.0070461054, Final residual = 0.00060351056, No Iterations 2
ExecutionTime = 35.16 s  ClockTime = 35 s

forceCoeffs forceCoeffs_cl execute:
    Coefficients
        Cd       : 0.18315874	(pressure: 0.16654249	viscous: 0.016616252)
        Cs       : -7.8306006e-05	(pressure: -8.1567266e-05	viscous: 3.2612593e-06)
        Cl       : 0.00039379699	(pressure: 0.00038710229	viscous: 6.6946951e-06)
        CmRoll       : 4.1775047e-08	(pressure: -6.0572612e-09	viscous: 4.7832309e-08)
        CmPitch       : 7.0762955e-05	(pressure: 6.9185369e-05	viscous: 1.577586e-06)
        CmYaw       : -0.00012434601	(pressure: -0.00012413897	viscous: -2.0704091e-07)
        Cd(f)    : 0.091579414
        Cd(r)    : 0.09157933
        Cs(f)    : -0.00016349901
        Cs(r)    : 8.5193004e-05
        Cl(f)    : 0.00026766145
        Cl(r)    : 0.00012613554
forceCoeffs forceCoeffs_cd execute:
    Coefficients
        Cd       : 0.7818919	(pressure: 0.71095828	viscous: 0.07093362)
        Cs       : -0.00033428288	(pressure: -0.00034820496	viscous: 1.3922088e-05)
        Cl       : 0.0016810918	(pressure: 0.0016525127	viscous: 2.8579186e-05)
        CmRoll       : 1.7833476e-07	(pressure: -2.5858025e-08	viscous: 2.0419279e-07)
        CmPitch       : 0.00030208212	(pressure: 0.00029534751	viscous: 6.7346044e-06)
        CmYaw       : -0.00053082443	(pressure: -0.00052994059	viscous: -8.8384322e-07)
        Cd(f)    : 0.39094613
        Cd(r)    : 0.39094577
        Cs(f)    : -0.00069796587
        Cs(r)    : 0.00036368299
        Cl(f)    : 0.001142628
        Cl(r)    : 0.00053846381
forces force_computation write:
    Sum of forces
        Total    : (331.90661 0.71360951 0.1419003)
        Pressure : (301.79588 0.70147788 0.14781011)
        Viscous  : (30.110732 0.012131627 -0.0059098107)
    Sum of moments
        Total    : (0.00028153434 -0.83800434 -0.47689237)
        Pressure : (-4.0821666e-05 -0.83660903 -0.46626056)
        Viscous  : (0.000322356 -0.0013953096 -0.010631816)


Time = 15

smoothSolver:  Solving for Ux, Initial residual = 0.0079099465, Final residual = 0.00030075856, No Iterations 2
smoothSolver:  Solving for Uy, Initial residual = 0.049700387, Final residual = 0.0021487263, No Iterations 2
smoothSolver:  Solving for Uz, Initial residual = 0.049463782, Final residual = 0.0021366651, No Iterations 2
GAMG:  Solving for p, Initial residual = 0.075183523, Final residual = 0.00058948527, No Iterations 4
GAMG:  Solving for p, Initial residual = 0.0080877042, Final residual = 7.6336809e-05, No Iterations 3
GAMG:  Solving for p, Initial residual = 0.0009867041, Final residual = 5.0507151e-06, No Iterations 4
GAMG:  Solving for p, Initial residual = 0.00018631782, Final residual = 1.4835993e-06, No Iterations 3
GAMG:  Solving for p, Initial residual = 4.1295304e-05, Final residual = 3.966152e-07, No Iterations 3
GAMG:  Solving for p, Initial residual = 1.0872873e-05, Final residual = 4.7334412e-08, No Iterations 4
time step continuity errors : sum local = 1.4693234e-09, global = 4.4649639e-11, cumulative = 8.518003e-09
smoothSolver:  Solving for omega, Initial residual = 0.003657596, Final residual = 0.00030871661, No Iterations 2
smoothSolver:  Solving for k, Initial residual = 0.0062485586, Final residual = 0.00053921749, No Iterations 2
ExecutionTime = 37.57 s  ClockTime = 38 s

forceCoeffs forceCoeffs_cl execute:
    Coefficients
        Cd       : 0.33324394	(pressure: 0.31678775	viscous: 0.016456191)
        Cs       : 0.00011638948	(pressure: 0.00011301694	viscous: 3.3725374e-06)
        Cl       : 0.00035989879	(pressure: 0.00035189468	viscous: 8.0041101e-06)
        CmRoll       : 4.8560589e-08	(pressure: 6.0756416e-09	viscous: 4.2484947e-08)
        CmPitch       : 7.1533416e-05	(pressure: 6.9544037e-05	viscous: 1.9893794e-06)
        CmYaw       : -4.7873677e-05	(pressure: -4.7748897e-05	viscous: -1.2478018e-07)
        Cd(f)    : 0.16662202
        Cd(r)    : 0.16662192
        Cs(f)    : 1.0321063e-05
        Cs(r)    : 0.00010606842
        Cl(f)    : 0.00025148281
        Cl(r)    : 0.00010841598
forceCoeffs forceCoeffs_cd execute:
    Coefficients
        Cd       : 1.4225951	(pressure: 1.3523448	viscous: 0.070250332)
        Cs       : 0.00049685857	(pressure: 0.00048246144	viscous: 1.4397127e-05)
        Cl       : 0.0015363828	(pressure: 0.0015022138	viscous: 3.4168988e-05)
        CmRoll       : 2.0730177e-07	(pressure: 2.593649e-08	viscous: 1.8136528e-07)
        CmPitch       : 0.00030537116	(pressure: 0.00029687864	viscous: 8.4925217e-06)
        CmYaw       : -0.00020436939	(pressure: -0.00020383671	viscous: -5.3267788e-07)
        Cd(f)    : 0.71129777
        Cd(r)    : 0.71129736
        Cs(f)    : 4.4059897e-05
        Cs(r)    : 0.00045279867
        Cl(f)    : 0.0010735626
        Cl(r)    : 0.00046282025
forces force_computation write:
    Sum of forces
        Total    : (603.8798 0.65218173 -0.21091233)
        Pressure : (574.05912 0.63767728 -0.20480087)
        Viscous  : (29.820682 0.014504451 -0.0061114605)
    Sum of moments
        Total    : (0.0003272641 -0.3226348 -0.48208474)
        Pressure : (4.0945537e-05 -0.32179387 -0.46867773)
        Viscous  : (0.00028631856 -0.00084093036 -0.013407013)


Time = 16

smoothSolver:  Solving for Ux, Initial residual = 0.0080104665, Final residual = 0.00032864616, No Iterations 2
smoothSolver:  Solving for Uy, Initial residual = 0.044712399, Final residual = 0.0019479905, No Iterations 2
smoothSolver:  Solving for Uz, Initial residual = 0.044453437, Final residual = 0.001937112, No Iterations 2
GAMG:  Solving for p, Initial residual = 0.073287997, Final residual = 0.00065549301, No Iterations 4
GAMG:  Solving for p, Initial residual = 0.0034989667, Final residual = 1.9092542e-05, No Iterations 4
GAMG:  Solving for p, Initial residual = 0.00042420414, Final residual = 3.8999552e-06, No Iterations 3
GAMG:  Solving for p, Initial residual = 7.0041428e-05, Final residual = 3.7410123e-07, No Iterations 4
GAMG:  Solving for p, Initial residual = 1.602665e-05, Final residual = 1.0991796e-07, No Iterations 3
GAMG:  Solving for p, Initial residual = 3.7376123e-06, Final residual = 6.9097766e-08, No Iterations 2
time step continuity errors : sum local = 5.2386927e-09, global = 3.8783924e-10, cumulative = 8.9058423e-09
smoothSolver:  Solving for omega, Initial residual = 0.0032248882, Final residual = 0.00027522913, No Iterations 2
smoothSolver:  Solving for k, Initial residual = 0.0055772122, Final residual = 0.00048297434, No Iterations 2
ExecutionTime = 39.95 s  ClockTime = 40 s

forceCoeffs forceCoeffs_cl execute:
    Coefficients
        Cd       : 0.24821715	(pressure: 0.23199691	viscous: 0.016220235)
        Cs       : 0.00028373517	(pressure: 0.00027984495	viscous: 3.8902216e-06)
        Cl       : 0.00020447528	(pressure: 0.00019688638	viscous: 7.5888923e-06)
        CmRoll       : 5.9403324e-08	(pressure: 2.0924498e-08	viscous: 3.8478826e-08)
        CmPitch       : 7.3162257e-05	(pressure: 7.1464724e-05	viscous: 1.6975325e-06)
        CmYaw       : 1.9396358e-05	(pressure: 1.9674678e-05	viscous: -2.7832009e-07)
        Cd(f)    : 0.12410863
        Cd(r)    : 0.12410851
        Cs(f)    : 0.00016126394
        Cs(r)    : 0.00012247123
        Cl(f)    : 0.00017539989
        Cl(r)    : 2.9075381e-05
forceCoeffs forceCoeffs_cd execute:
    Coefficients
        Cd       : 1.0596217	(pressure: 0.99037862	viscous: 0.069243053)
        Cs       : 0.0012112456	(pressure: 0.0011946386	viscous: 1.6607084e-05)
        Cl       : 0.00087289068	(pressure: 0.00084049423	viscous: 3.2396452e-05)
        CmRoll       : 2.5358865e-07	(pressure: 8.9325223e-08	viscous: 1.6426342e-07)
        CmPitch       : 0.00031232457	(pressure: 0.00030507792	viscous: 7.2466477e-06)
        CmYaw       : 8.2801698e-05	(pressure: 8.3989827e-05	viscous: -1.188129e-06)
        Cd(f)    : 0.52981109
        Cd(r)    : 0.52981058
        Cs(f)    : 0.00068842452
        Cs(r)    : 0.00052282112
        Cl(f)    : 0.00074876991
        Cl(r)    : 0.00012412077
forces force_computation write:
    Sum of forces
        Total    : (449.80059 0.37053484 -0.5141637)
        Pressure : (420.40749 0.35678281 -0.50711413)
        Viscous  : (29.3931 0.013752024 -0.0070495692)
    Sum of moments
        Total    : (0.00040033648 0.13071776 -0.49306198)
        Pressure : (0.00014101635 0.13259344 -0.48162181)
        Viscous  : (0.00025932013 -0.001875681 -0.011440171)


Time = 17

smoothSolver:  Solving for Ux, Initial residual = 0.0063388741, Final residual = 0.00026283184, No Iterations 2
smoothSolver:  Solving for Uy, Initial residual = 0.029029373, Final residual = 0.001177899, No Iterations 2
smoothSolver:  Solving for Uz, Initial residual = 0.02882559, Final residual = 0.0011715662, No Iterations 2
GAMG:  Solving for p, Initial residual = 0.043363827, Final residual = 0.00022501756, No Iterations 5
GAMG:  Solving for p, Initial residual = 0.0028897412, Final residual = 2.2448343e-05, No Iterations 3
GAMG:  Solving for p, Initial residual = 0.00035129174, Final residual = 2.0182243e-06, No Iterations 4
GAMG:  Solving for p, Initial residual = 6.8912387e-05, Final residual = 5.2132404e-07, No Iterations 3
GAMG:  Solving for p, Initial residual = 1.5339265e-05, Final residual = 1.4296284e-07, No Iterations 3
GAMG:  Solving for p, Initial residual = 3.9942955e-06, Final residual = 7.6985907e-08, No Iterations 2
time step continuity errors : sum local = 6.748044e-09, global = 7.380244e-11, cumulative = 8.9796447e-09
smoothSolver:  Solving for omega, Initial residual = 0.0028608617, Final residual = 0.00024702889, No Iterations 2
smoothSolver:  Solving for k, Initial residual = 0.0050125034, Final residual = 0.00043433115, No Iterations 2
ExecutionTime = 42.39 s  ClockTime = 42 s

forceCoeffs forceCoeffs_cl execute:
    Coefficients
        Cd       : 0.067174446	(pressure: 0.051238261	viscous: 0.015936186)
        Cs       : 0.00031285971	(pressure: 0.00030864842	viscous: 4.2112874e-06)
        Cl       : 3.1725236e-05	(pressure: 2.6391436e-05	viscous: 5.3337997e-06)
        CmRoll       : 6.3468666e-08	(pressure: 3.0192127e-08	viscous: 3.3276539e-08)
        CmPitch       : 6.7232733e-05	(pressure: 6.655115e-05	viscous: 6.8158339e-07)
        CmYaw       : 4.0163988e-05	(pressure: 4.0570415e-05	viscous: -4.0642666e-07)
        Cd(f)    : 0.033587287
        Cd(r)    : 0.03358716
        Cs(f)    : 0.00019659384
        Cs(r)    : 0.00011626587
        Cl(f)    : 8.3095351e-05
        Cl(r)    : -5.1370115e-05
forceCoeffs forceCoeffs_cd execute:
    Coefficients
        Cd       : 0.28676302	(pressure: 0.21873256	viscous: 0.068030464)
        Cs       : 0.0013355763	(pressure: 0.0013175986	viscous: 1.7977692e-05)
        Cl       : 0.00013543282	(pressure: 0.0001126632	viscous: 2.2769619e-05)
        CmRoll       : 2.7094331e-07	(pressure: 1.2888808e-07	viscous: 1.4205522e-07)
        CmPitch       : 0.00028701185	(pressure: 0.00028410221	viscous: 2.9096319e-06)
        CmYaw       : 0.00017145726	(pressure: 0.00017319227	viscous: -1.7350071e-06)
        Cd(f)    : 0.14338178
        Cd(r)    : 0.14338124
        Cs(f)    : 0.00083924539
        Cs(r)    : 0.00049633086
        Cl(f)    : 0.00035472825
        Cl(r)    : -0.00021929544
forces force_computation write:
    Sum of forces
        Total    : (121.72852 0.057490105 -0.56694101)
        Pressure : (92.850152 0.047824591 -0.55930963)
        Viscous  : (28.878366 0.0096655137 -0.0076313807)
    Sum of moments
        Total    : (0.00042773402 0.27067693 -0.45310117)
        Pressure : (0.00020347363 0.27341596 -0.44850778)
        Viscous  : (0.00022426039 -0.0027390289 -0.0045933911)


Time = 18

smoothSolver:  Solving for Ux, Initial residual = 0.0051473881, Final residual = 0.0001976514, No Iterations 2
smoothSolver:  Solving for Uy, Initial residual = 0.02617539, Final residual = 0.00096338223, No Iterations 2
smoothSolver:  Solving for Uz, Initial residual = 0.025993286, Final residual = 0.00095563005, No Iterations 2
GAMG:  Solving for p, Initial residual = 0.025506891, Final residual = 0.00021506011, No Iterations 4
GAMG:  Solving for p, Initial residual = 0.0026737098, Final residual = 2.5309037e-05, No Iterations 3
GAMG:  Solving for p, Initial residual = 0.00035649992, Final residual = 1.9047819e-06, No Iterations 4
GAMG:  Solving for p, Initial residual = 7.0882026e-05, Final residual = 4.9757137e-07, No Iterations 3
GAMG:  Solving for p, Initial residual = 1.5393561e-05, Final residual = 1.3905136e-07, No Iterations 3
GAMG:  Solving for p, Initial residual = 3.9556378e-06, Final residual = 7.447489e-08, No Iterations 2
time step continuity errors : sum local = 4.9644939e-09, global = -6.9827317e-10, cumulative = 8.2813715e-09
smoothSolver:  Solving for omega, Initial residual = 0.0025565288, Final residual = 0.00022350204, No Iterations 2
smoothSolver:  Solving for k, Initial residual = 0.0045361452, Final residual = 0.00039264071, No Iterations 2
ExecutionTime = 44.69 s  ClockTime = 45 s

forceCoeffs forceCoeffs_cl execute:
    Coefficients
        Cd       : -0.055356631	(pressure: -0.071003804	viscous: 0.015647172)
        Cs       : 0.00022865396	(pressure: 0.00022442894	viscous: 4.2250201e-06)
        Cl       : -4.5357711e-05	(pressure: -4.8445961e-05	viscous: 3.0882506e-06)
        CmRoll       : 5.6895486e-08	(pressure: 2.940265e-08	viscous: 2.7492836e-08)
        CmPitch       : 4.9890244e-05	(pressure: 5.0174173e-05	viscous: -2.8392925e-07)
        CmYaw       : 4.0482618e-06	(pressure: 4.4774571e-06	viscous: -4.2919536e-07)
        Cd(f)    : -0.027678259
        Cd(r)    : -0.027678373
        Cs(f)    : 0.00011837524
        Cs(r)    : 0.00011027872
        Cl(f)    : 2.7211389e-05
        Cl(r)    : -7.2569099e-05
forceCoeffs forceCoeffs_cd execute:
    Coefficients
        Cd       : -0.2363136	(pressure: -0.30311028	viscous: 0.066796686)
        Cs       : 0.00097610779	(pressure: 0.00095807147	viscous: 1.8036316e-05)
        Cl       : -0.0001936289	(pressure: -0.00020681243	viscous: 1.3183526e-05)
        CmRoll       : 2.4288286e-07	(pressure: 1.2551786e-07	viscous: 1.17365e-07)
        CmPitch       : 0.00021297797	(pressure: 0.00021419004	viscous: -1.2120742e-06)
        CmYaw       : 1.7281747e-05	(pressure: 1.9113952e-05	viscous: -1.8322051e-06)
        Cd(f)    : -0.11815656
        Cd(r)    : -0.11815704
        Cs(f)    : 0.00050533564
        Cs(r)    : 0.00047077215
        Cl(f)    : 0.00011616352
        Cl(r)    : -0.00030979242
forces force_computation write:
    Sum of forces
        Total    : (-100.31316 -0.082193858 -0.41434964)
        Pressure : (-128.66779 -0.087790155 -0.40669337)
        Viscous  : (28.354638 0.0055962973 -0.0076562661)
    Sum of moments
        Total    : (0.00038343542 0.027282427 -0.33622504)
        Pressure : (0.00019815311 0.030174901 -0.33813852)
        Viscous  : (0.00018528231 -0.0028924739 0.0019134828)


Time = 19

smoothSolver:  Solving for Ux, Initial residual = 0.0050803557, Final residual = 0.00018307795, No Iterations 2
smoothSolver:  Solving for Uy, Initial residual = 0.030021424, Final residual = 0.0011575971, No Iterations 2
smoothSolver:  Solving for Uz, Initial residual = 0.02986456, Final residual = 0.0011499291, No Iterations 2
GAMG:  Solving for p, Initial residual = 0.023737847, Final residual = 0.00015707765, No Iterations 4
GAMG:  Solving for p, Initial residual = 0.0037924508, Final residual = 3.5644962e-05, No Iterations 3
GAMG:  Solving for p, Initial residual = 0.0004890218, Final residual = 2.5383306e-06, No Iterations 4
GAMG:  Solving for p, Initial residual = 9.1338727e-05, Final residual = 6.3969656e-07, No Iterations 3
GAMG:  Solving for p, Initial residual = 1.8594739e-05, Final residual = 1.6443776e-07, No Iterations 3
GAMG:  Solving for p, Initial residual = 4.663127e-06, Final residual = 8.6645316e-08, No Iterations 2
time step continuity errors : sum local = 3.3220648e-09, global = -8.019988e-10, cumulative = 7.4793727e-09
smoothSolver:  Solving for omega, Initial residual = 0.0023019172, Final residual = 0.00020384246, No Iterations 2
smoothSolver:  Solving for k, Initial residual = 0.0041306181, Final residual = 0.00035687636, No Iterations 2
ExecutionTime = 47.01 s  ClockTime = 47 s

forceCoeffs forceCoeffs_cl execute:
    Coefficients
        Cd       : -0.058002798	(pressure: -0.07338399	viscous: 0.015381192)
        Cs       : 0.00017317954	(pressure: 0.00016914909	viscous: 4.0304434e-06)
        Cl       : 5.7225395e-05	(pressure: 5.5777503e-05	viscous: 1.4478919e-06)
        CmRoll       : 4.318546e-08	(pressure: 2.1790441e-08	viscous: 2.1395018e-08)
        CmPitch       : 5.4792342e-05	(pressure: 5.5800044e-05	viscous: -1.0077022e-06)
        CmYaw       : -7.6971994e-05	(pressure: -7.6651557e-05	viscous: -3.2043662e-07)
        Cd(f)    : -0.029001356
        Cd(r)    : -0.029001442
        Cs(f)    : 9.6177745e-06
        Cs(r)    : 0.00016356176
        Cl(f)    : 8.3405039e-05
        Cl(r)    : -2.6179645e-05
forceCoeffs forceCoeffs_cd execute:
    Coefficients
        Cd       : -0.2476099	(pressure: -0.31327113	viscous: 0.065661235)
        Cs       : 0.00073929136	(pressure: 0.00072208568	viscous: 1.7205681e-05)
        Cl       : 0.00024429122	(pressure: 0.00023811027	viscous: 6.1809496e-06)
        CmRoll       : 1.8435571e-07	(pressure: 9.3021874e-08	viscous: 9.133384e-08)
        CmPitch       : 0.00023390468	(pressure: 0.00023820649	viscous: -4.3018105e-06)
        CmYaw       : -0.00032858807	(pressure: -0.00032722015	viscous: -1.3679216e-06)
        Cd(f)    : -0.12380476
        Cd(r)    : -0.12380513
        Cs(f)    : 4.1057608e-05
        Cs(r)    : 0.00069823375
        Cl(f)    : 0.00035605029
        Cl(r)    : -0.00011175908
forces force_computation write:
    Sum of forces
        Total    : (-105.10834 0.10369959 -0.31382303)
        Pressure : (-132.98099 0.10107583 -0.30651936)
        Viscous  : (27.872648 0.0026237617 -0.0073036687)
    Sum of moments
        Total    : (0.00029103952 -0.51873692 -0.36926172)
        Pressure : (0.0001468522 -0.5165774 -0.37605292)
        Viscous  : (0.00014418732 -0.0021595167 0.0067912019)


Time = 20

smoothSolver:  Solving for Ux, Initial residual = 0.0046772076, Final residual = 0.00016469818, No Iterations 2
smoothSolver:  Solving for Uy, Initial residual = 0.023842953, Final residual = 0.00097572632, No Iterations 2
smoothSolver:  Solving for Uz, Initial residual = 0.02372133, Final residual = 0.00096934035, No Iterations 2
GAMG:  Solving for p, Initial residual = 0.026110694, Final residual = 0.00022499287, No Iterations 4
GAMG:  Solving for p, Initial residual = 0.006607095, Final residual = 3.3324741e-05, No Iterations 4
GAMG:  Solving for p, Initial residual = 0.00088381534, Final residual = 6.185235e-06, No Iterations 3
GAMG:  Solving for p, Initial residual = 0.00015646961, Final residual = 1.5290838e-06, No Iterations 3
GAMG:  Solving for p, Initial residual = 3.6128013e-05, Final residual = 2.8886696e-07, No Iterations 3
GAMG:  Solving for p, Initial residual = 8.7385319e-06, Final residual = 8.4776079e-08, No Iterations 3
time step continuity errors : sum local = 2.1018887e-09, global = -2.1450411e-10, cumulative = 7.2648686e-09
smoothSolver:  Solving for omega, Initial residual = 0.0020868224, Final residual = 0.00018732371, No Iterations 2
smoothSolver:  Solving for k, Initial residual = 0.0037781305, Final residual = 0.0003259007, No Iterations 2
ExecutionTime = 49.47 s  ClockTime = 50 s

forceCoeffs forceCoeffs_cl execute:
    Coefficients
        Cd       : 0.018606284	(pressure: 0.0034607804	viscous: 0.015145504)
        Cs       : 0.00013235842	(pressure: 0.00012858763	viscous: 3.7707929e-06)
        Cl       : 0.00021626742	(pressure: 0.00021575639	viscous: 5.1103228e-07)
        CmRoll       : 2.7273259e-08	(pressure: 1.4507519e-08	viscous: 1.276574e-08)
        CmPitch       : 7.2855278e-05	(pressure: 7.430651e-05	viscous: -1.4512315e-06)
        CmYaw       : -0.00013162445	(pressure: -0.00013147587	viscous: -1.4858177e-07)
        Cd(f)    : 0.0093031693
        Cd(r)    : 0.0093031148
        Cs(f)    : -6.5445244e-05
        Cs(r)    : 0.00019780366
        Cl(f)    : 0.00018098899
        Cl(r)    : 3.5278432e-05
forceCoeffs forceCoeffs_cd execute:
    Coefficients
        Cd       : 0.079428928	(pressure: 0.01477383	viscous: 0.064655098)
        Cs       : 0.00056502886	(pressure: 0.00054893161	viscous: 1.6097252e-05)
        Cl       : 0.00092323053	(pressure: 0.00092104897	viscous: 2.1815611e-06)
        CmRoll       : 1.1642764e-07	(pressure: 6.1931585e-08	viscous: 5.4496054e-08)
        CmPitch       : 0.0003110141	(pressure: 0.00031720931	viscous: -6.1952061e-06)
        CmYaw       : -0.00056189561	(pressure: -0.00056126132	viscous: -6.3428521e-07)
        Cd(f)    : 0.039714581
        Cd(r)    : 0.039714348
        Cs(f)    : -0.00027938118
        Cs(r)    : 0.00084441004
        Cl(f)    : 0.00077262936
        Cl(r)    : 0.00015060116
forces force_computation write:
    Sum of forces
        Total    : (33.716919 0.39190368 -0.23985005)
        Pressure : (6.271368 0.39097763 -0.2330169)
        Viscous  : (27.445552 0.00092605456 -0.0068331494)
    Sum of moments
        Total    : (0.00018380252 -0.88705593 -0.49099316)
        Pressure : (9.7770438e-05 -0.88605459 -0.50077344)
        Viscous  : (8.6032079e-05 -0.0010013363 0.0097802762)


Time = 21

smoothSolver:  Solving for Ux, Initial residual = 0.003991936, Final residual = 0.0001388368, No Iterations 2
smoothSolver:  Solving for Uy, Initial residual = 0.01862764, Final residual = 0.00076547192, No Iterations 2
smoothSolver:  Solving for Uz, Initial residual = 0.018558786, Final residual = 0.00076324459, No Iterations 2
GAMG:  Solving for p, Initial residual = 0.025573807, Final residual = 0.00019276422, No Iterations 4
GAMG:  Solving for p, Initial residual = 0.0044614294, Final residual = 4.0156412e-05, No Iterations 3
GAMG:  Solving for p, Initial residual = 0.00056334401, Final residual = 2.7373452e-06, No Iterations 4
GAMG:  Solving for p, Initial residual = 0.00010964094, Final residual = 7.2582416e-07, No Iterations 3
GAMG:  Solving for p, Initial residual = 2.2494198e-05, Final residual = 1.7615337e-07, No Iterations 3
GAMG:  Solving for p, Initial residual = 5.7640827e-06, Final residual = 9.4490193e-08, No Iterations 2
time step continuity errors : sum local = 2.9493885e-09, global = -2.4229492e-10, cumulative = 7.0225737e-09
smoothSolver:  Solving for omega, Initial residual = 0.0018991165, Final residual = 0.00017288863, No Iterations 2
smoothSolver:  Solving for k, Initial residual = 0.0034640254, Final residual = 0.00029860425, No Iterations 2
ExecutionTime = 51.81 s  ClockTime = 52 s

forceCoeffs forceCoeffs_cl execute:
    Coefficients
        Cd       : 0.094963385	(pressure: 0.080028911	viscous: 0.014934474)
        Cs       : 0.00010817816	(pressure: 0.00010459841	viscous: 3.5797526e-06)
        Cl       : 0.00030921787	(pressure: 0.00030924934	viscous: -3.1470553e-08)
        CmRoll       : 1.7404508e-08	(pressure: 1.2300527e-08	viscous: 5.1039802e-09)
        CmPitch       : 8.8667206e-05	(pressure: 9.0526712e-05	viscous: -1.8595059e-06)
        CmYaw       : -0.00012144153	(pressure: -0.00012145636	viscous: 1.4822463e-08)
        Cd(f)    : 0.04748171
        Cd(r)    : 0.047481675
        Cs(f)    : -6.7352455e-05
        Cs(r)    : 0.00017553061
        Cl(f)    : 0.00024327614
        Cl(r)    : 6.5941727e-05
forceCoeffs forceCoeffs_cd execute:
    Coefficients
        Cd       : 0.40539206	(pressure: 0.34163784	viscous: 0.063754227)
        Cs       : 0.00046180501	(pressure: 0.0004465233	viscous: 1.5281714e-05)
        Cl       : 0.0013200295	(pressure: 0.0013201638	viscous: -1.343456e-07)
        CmRoll       : 7.4298628e-08	(pressure: 5.2510093e-08	viscous: 2.1788535e-08)
        CmPitch       : 0.00037851412	(pressure: 0.00038645222	viscous: -7.938101e-06)
        CmYaw       : -0.00051842543	(pressure: -0.00051848871	viscous: 6.3276062e-08)
        Cd(f)    : 0.20269611
        Cd(r)    : 0.20269596
        Cs(f)    : -0.00028752293
        Cs(r)    : 0.00074932794
        Cl(f)    : 0.0010385289
        Cl(r)    : 0.00028150063
forces force_computation write:
    Sum of forces
        Total    : (172.08556 0.56034154 -0.19603239)
        Pressure : (145.02242 0.56039857 -0.18954543)
        Viscous  : (27.063139 -5.7028588e-05 -0.0064869605)
    Sum of moments
        Total    : (0.0001172941 -0.81843023 -0.5975544)
        Pressure : (8.2896873e-05 -0.81853013 -0.61008615)
        Viscous  : (3.4397225e-05 9.9892943e-05 0.012531758)


Time = 22

smoothSolver:  Solving for Ux, Initial residual = 0.0038877862, Final residual = 0.00013925364, No Iterations 2
smoothSolver:  Solving for Uy, Initial residual = 0.019610757, Final residual = 0.00077484212, No Iterations 2
smoothSolver:  Solving for Uz, Initial residual = 0.01954629, Final residual = 0.00077134738, No Iterations 2
GAMG:  Solving for p, Initial residual = 0.022828165, Final residual = 0.00013956938, No Iterations 4
GAMG:  Solving for p, Initial residual = 0.0021119359, Final residual = 1.7833426e-05, No Iterations 3
GAMG:  Solving for p, Initial residual = 0.00025347159, Final residual = 1.2085833e-06, No Iterations 4
GAMG:  Solving for p, Initial residual = 5.2842248e-05, Final residual = 3.0848696e-07, No Iterations 3
GAMG:  Solving for p, Initial residual = 1.0848077e-05, Final residual = 8.4552337e-08, No Iterations 3
GAMG:  Solving for p, Initial residual = 2.9650797e-06, Final residual = 4.3967309e-08, No Iterations 2
time step continuity errors : sum local = 2.0695918e-09, global = 6.1899977e-10, cumulative = 7.6415735e-09
smoothSolver:  Solving for omega, Initial residual = 0.0017341255, Final residual = 0.00016000978, No Iterations 2
smoothSolver:  Solving for k, Initial residual = 0.0031882214, Final residual = 0.0002746511, No Iterations 2
ExecutionTime = 54.16 s  ClockTime = 54 s

forceCoeffs forceCoeffs_cl execute:
    Coefficients
        Cd       : 0.11922127	(pressure: 0.10449184	viscous: 0.014729425)
        Cs       : 9.9469242e-05	(pressure: 9.5940105e-05	viscous: 3.5291374e-06)
        Cl       : 0.000281797	(pressure: 0.00028212776	viscous: -3.3075482e-07)
        CmRoll       : 1.2893588e-08	(pressure: 1.4779038e-08	viscous: -1.8854502e-09)
        CmPitch       : 8.8980576e-05	(pressure: 9.1083447e-05	viscous: -2.1028714e-06)
        CmYaw       : -6.4052715e-05	(pressure: -6.4123842e-05	viscous: 7.1127222e-08)
        Cd(f)    : 0.059610647
        Cd(r)    : 0.059610622
        Cs(f)    : -1.4318094e-05
        Cs(r)    : 0.00011378734
        Cl(f)    : 0.00022987908
        Cl(r)    : 5.1917925e-05
forceCoeffs forceCoeffs_cd execute:
    Coefficients
        Cd       : 0.50894728	(pressure: 0.44606839	viscous: 0.062878889)
        Cs       : 0.00042462725	(pressure: 0.00040956161	viscous: 1.5065641e-05)
        Cl       : 0.0012029717	(pressure: 0.0012043837	viscous: -1.4119692e-06)
        CmRoll       : 5.5041827e-08	(pressure: 6.3090683e-08	viscous: -8.0488554e-09)
        CmPitch       : 0.00037985187	(pressure: 0.00038882888	viscous: -8.9770114e-06)
        CmYaw       : -0.00027343657	(pressure: -0.00027374021	viscous: 3.0363715e-07)
        Cd(f)    : 0.25447369
        Cd(r)    : 0.25447358
        Cs(f)    : -6.1122944e-05
        Cs(r)    : 0.0004857502
        Cl(f)    : 0.00098133773
        Cl(r)    : 0.000221634
forces force_computation write:
    Sum of forces
        Total    : (216.04389 0.51065149 -0.18025074)
        Pressure : (189.35232 0.51125086 -0.1738555)
        Viscous  : (26.691566 -0.00059936919 -0.0063952394)
    Sum of moments
        Total    : (8.6893683e-05 -0.43167009 -0.59966628)
        Pressure : (9.9600287e-05 -0.43214944 -0.61383815)
        Viscous  : (-1.2706604e-05 0.00047934728 0.014171869)


Time = 23

smoothSolver:  Solving for Ux, Initial residual = 0.0036643278, Final residual = 0.00013541749, No Iterations 2
smoothSolver:  Solving for Uy, Initial residual = 0.017061271, Final residual = 0.00064373764, No Iterations 2
smoothSolver:  Solving for Uz, Initial residual = 0.016985192, Final residual = 0.00063999387, No Iterations 2
GAMG:  Solving for p, Initial residual = 0.023024087, Final residual = 0.0001545637, No Iterations 4
GAMG:  Solving for p, Initial residual = 0.0017054128, Final residual = 8.6484218e-06, No Iterations 4
GAMG:  Solving for p, Initial residual = 0.00022171681, Final residual = 1.7000969e-06, No Iterations 3
GAMG:  Solving for p, Initial residual = 3.8047085e-05, Final residual = 3.6933971e-07, No Iterations 3
GAMG:  Solving for p, Initial residual = 8.8985838e-06, Final residual = 7.2536222e-08, No Iterations 3
GAMG:  Solving for p, Initial residual = 2.1839245e-06, Final residual = 3.9446052e-08, No Iterations 2
time step continuity errors : sum local = 2.2906346e-09, global = 2.3684866e-10, cumulative = 7.8784221e-09
smoothSolver:  Solving for omega, Initial residual = 0.0015895923, Final residual = 0.00014843539, No Iterations 2
smoothSolver:  Solving for k, Initial residual = 0.0029372557, Final residual = 0.00025318829, No Iterations 2
ExecutionTime = 56.54 s  ClockTime = 57 s

forceCoeffs forceCoeffs_cl execute:
    Coefficients
        Cd       : 0.092775512	(pressure: 0.078258443	viscous: 0.01451707)
        Cs       : 0.00013016802	(pressure: 0.00012671717	viscous: 3.4508532e-06)
        Cl       : 0.00016640273	(pressure: 0.00016696888	viscous: -5.6615418e-07)
        CmRoll       : 1.1440757e-08	(pressure: 1.8077074e-08	viscous: -6.6363172e-09)
        CmPitch       : 7.9025319e-05	(pressure: 8.1238567e-05	viscous: -2.2132474e-06)
        CmYaw       : -1.4759589e-05	(pressure: -1.4850853e-05	viscous: 9.1264255e-08)
        Cd(f)    : 0.046387768
        Cd(r)    : 0.046387745
        Cs(f)    : 5.0324423e-05
        Cs(r)    : 7.9843601e-05
        Cl(f)    : 0.00016222668
        Cl(r)    : 4.1760444e-06
forceCoeffs forceCoeffs_cd execute:
    Coefficients
        Cd       : 0.39605219	(pressure: 0.33407983	viscous: 0.061972357)
        Cs       : 0.00055567821	(pressure: 0.00054094676	viscous: 1.4731452e-05)
        Cl       : 0.00071036163	(pressure: 0.0007127785	viscous: -2.4168727e-06)
        CmRoll       : 4.8839794e-08	(pressure: 7.7169769e-08	viscous: -2.8329975e-08)
        CmPitch       : 0.00033735357	(pressure: 0.00034680177	viscous: -9.4481987e-06)
        CmYaw       : -6.3007654e-05	(pressure: -6.3397255e-05	viscous: 3.8960073e-07)
        Cd(f)    : 0.19802614
        Cd(r)    : 0.19802605
        Cs(f)    : 0.00021483145
        Cs(r)    : 0.00034084676
        Cl(f)    : 0.00069253439
        Cl(r)    : 1.7827242e-05
forces force_computation write:
    Sum of forces
        Total    : (168.12086 0.3015426 -0.23588078)
        Pressure : (141.81411 0.30256855 -0.2296274)
        Viscous  : (26.30675 -0.0010259424 -0.0062533787)
    Sum of moments
        Total    : (7.710263e-05 -0.099469211 -0.53257488)
        Pressure : (0.00012182672 -0.10008427 -0.54749061)
        Viscous  : (-4.4724094e-05 0.00061505667 0.014915726)


Time = 24

smoothSolver:  Solving for Ux, Initial residual = 0.0032513114, Final residual = 0.00011856245, No Iterations 2
smoothSolver:  Solving for Uy, Initial residual = 0.012549617, Final residual = 0.00043020289, No Iterations 2
smoothSolver:  Solving for Uz, Initial residual = 0.012477961, Final residual = 0.0004282357, No Iterations 2
GAMG:  Solving for p, Initial residual = 0.018789025, Final residual = 0.00012501213, No Iterations 4
GAMG:  Solving for p, Initial residual = 0.001533502, Final residual = 7.1838187e-06, No Iterations 4
GAMG:  Solving for p, Initial residual = 0.00020382117, Final residual = 1.4432661e-06, No Iterations 3
GAMG:  Solving for p, Initial residual = 3.6145922e-05, Final residual = 3.3152447e-07, No Iterations 3
GAMG:  Solving for p, Initial residual = 8.6483817e-06, Final residual = 6.3315217e-08, No Iterations 3
GAMG:  Solving for p, Initial residual = 2.109054e-06, Final residual = 3.6974055e-08, No Iterations 2
time step continuity errors : sum local = 2.1185845e-09, global = -1.0519192e-10, cumulative = 7.7732302e-09
smoothSolver:  Solving for omega, Initial residual = 0.0014673559, Final residual = 0.00013834792, No Iterations 2
smoothSolver:  Solving for k, Initial residual = 0.0027102515, Final residual = 0.00023349674, No Iterations 2
ExecutionTime = 58.93 s  ClockTime = 59 s

forceCoeffs forceCoeffs_cl execute:
    Coefficients
        Cd       : 0.05049439	(pressure: 0.036198926	viscous: 0.014295463)
        Cs       : 0.00020058584	(pressure: 0.00019729619	viscous: 3.289654e-06)
        Cl       : 3.6932636e-05	(pressure: 3.7727376e-05	viscous: -7.9474015e-07)
        CmRoll       : 1.1676142e-08	(pressure: 1.9801964e-08	viscous: -8.125822e-09)
        CmPitch       : 6.4170491e-05	(pressure: 6.6405272e-05	viscous: -2.234781e-06)
        CmYaw       : -1.0114636e-05	(pressure: -1.0180083e-05	viscous: 6.5446731e-08)
        Cd(f)    : 0.025247207
        Cd(r)    : 0.025247183
        Cs(f)    : 9.0178285e-05
        Cs(r)    : 0.00011040756
        Cl(f)    : 8.2636809e-05
        Cl(r)    : -4.5704174e-05
forceCoeffs forceCoeffs_cd execute:
    Coefficients
        Cd       : 0.21555703	(pressure: 0.15453069	viscous: 0.061026336)
        Cs       : 0.00085628696	(pressure: 0.00084224366	viscous: 1.4043304e-05)
        Cl       : 0.00015766284	(pressure: 0.00016105553	viscous: -3.3926902e-06)
        CmRoll       : 4.9844634e-08	(pressure: 8.4533201e-08	viscous: -3.4688567e-08)
        CmPitch       : 0.00027393935	(pressure: 0.00028347947	viscous: -9.5401239e-06)
        CmYaw       : -4.3178677e-05	(pressure: -4.3458065e-05	viscous: 2.7938753e-07)
        Cd(f)    : 0.10777856
        Cd(r)    : 0.10777846
        Cs(f)    : 0.0003849648
        Cs(r)    : 0.00047132216
        Cl(f)    : 0.00035277077
        Cl(r)    : -0.00019510793
[...]
        Cd(r)    : 0.11248635
        Cs(f)    : -0.01043127
        Cs(r)    : -0.0021415162
        Cl(f)    : 0.0033722516
        Cl(r)    : 0.011999985
forces force_computation write:
    Sum of forces
        Total    : (95.497088 6.5253865 5.3370434)
        Pressure : (80.208404 6.5177933 5.3390032)
        Viscous  : (15.288683 0.0075931506 -0.0019598497)
    Sum of moments
        Total    : (-0.0036268014 -6.5434536 6.8102346)
        Pressure : (7.9477222e-06 -6.6573596 6.7585924)
        Viscous  : (-0.0036347491 0.11390598 0.051642167)


Time = 495

smoothSolver:  Solving for Ux, Initial residual = 3.1393698e-05, Final residual = 9.8243154e-07, No Iterations 2
smoothSolver:  Solving for Uy, Initial residual = 0.00036291711, Final residual = 1.1530832e-05, No Iterations 2
smoothSolver:  Solving for Uz, Initial residual = 0.0003540177, Final residual = 1.0822009e-05, No Iterations 2
GAMG:  Solving for p, Initial residual = 0.00020655492, Final residual = 1.2984851e-06, No Iterations 3
GAMG:  Solving for p, Initial residual = 1.8649147e-05, Final residual = 1.5569494e-07, No Iterations 3
GAMG:  Solving for p, Initial residual = 2.4079881e-06, Final residual = 5.7588655e-08, No Iterations 2
GAMG:  Solving for p, Initial residual = 4.6311252e-07, Final residual = 3.8283699e-08, No Iterations 1
GAMG:  Solving for p, Initial residual = 1.0898312e-07, Final residual = 2.0193272e-08, No Iterations 1
GAMG:  Solving for p, Initial residual = 4.5724702e-08, Final residual = 4.5724702e-08, No Iterations 0
time step continuity errors : sum local = 2.116796e-09, global = -1.205446e-10, cumulative = 6.2982208e-08
smoothSolver:  Solving for omega, Initial residual = 5.3501171e-06, Final residual = 3.5785414e-07, No Iterations 2
smoothSolver:  Solving for k, Initial residual = 3.310966e-05, Final residual = 2.1960451e-06, No Iterations 2
ExecutionTime = 574.69 s  ClockTime = 577 s

forceCoeffs forceCoeffs_cl execute:
    Coefficients
        Cd       : 0.052711155	(pressure: 0.044273833	viscous: 0.008437322)
        Cs       : -0.0029470566	(pressure: -0.0029479868	viscous: 9.3024208e-07)
        Cl       : 0.0035296415	(pressure: 0.003525506	viscous: 4.1355874e-06)
        CmRoll       : -5.4451577e-07	(pressure: 1.1312452e-09	viscous: -5.4564702e-07)
        CmPitch       : -0.00098934831	(pressure: -0.00098163422	viscous: -7.7140825e-06)
        CmYaw       : -0.00097143327	(pressure: -0.00098827454	viscous: 1.6841276e-05)
        Cd(f)    : 0.026355033
        Cd(r)    : 0.026356122
        Cs(f)    : -0.0024449616
        Cs(r)    : -0.00050209501
        Cl(f)    : 0.00077547246
        Cl(r)    : 0.0027541691
forceCoeffs forceCoeffs_cd execute:
    Coefficients
        Cd       : 0.22502024	(pressure: 0.1890019	viscous: 0.036018339)
        Cs       : -0.012580779	(pressure: -0.01258475	viscous: 3.9711385e-06)
        Cl       : 0.015067793	(pressure: 0.015050139	viscous: 1.7654534e-05)
        CmRoll       : -2.3244998e-06	(pressure: 4.8292067e-09	viscous: -2.329329e-06)
        CmPitch       : -0.0042234589	(pressure: -0.004190528	viscous: -3.293088e-05)
        CmYaw       : -0.0041469808	(pressure: -0.0042188751	viscous: 7.189423e-05)
        Cd(f)    : 0.1125078
        Cd(r)    : 0.11251245
        Cs(f)    : -0.01043737
        Cs(r)    : -0.0021434086
        Cl(f)    : 0.0033104378
        Cl(r)    : 0.011757356
forces force_computation write:
    Sum of forces
        Total    : (95.519222 6.396153 5.340436)
        Pressure : (80.229737 6.3886588 5.3421217)
        Viscous  : (15.289485 0.0074942029 -0.0016857153)
    Sum of moments
        Total    : (-0.003669652 -6.5467747 6.6675094)
        Pressure : (7.6237941e-06 -6.660273 6.6155219)
        Viscous  : (-0.0036772758 0.11349831 0.051987472)


Time = 496

smoothSolver:  Solving for Ux, Initial residual = 3.121596e-05, Final residual = 9.7928463e-07, No Iterations 2
smoothSolver:  Solving for Uy, Initial residual = 0.00036124216, Final residual = 1.1489421e-05, No Iterations 2
smoothSolver:  Solving for Uz, Initial residual = 0.0003513174, Final residual = 1.0755425e-05, No Iterations 2
GAMG:  Solving for p, Initial residual = 0.00020609588, Final residual = 1.2906612e-06, No Iterations 3
GAMG:  Solving for p, Initial residual = 1.8492101e-05, Final residual = 1.5504298e-07, No Iterations 3
GAMG:  Solving for p, Initial residual = 2.3846636e-06, Final residual = 5.7442699e-08, No Iterations 2
GAMG:  Solving for p, Initial residual = 4.619778e-07, Final residual = 3.8426854e-08, No Iterations 1
GAMG:  Solving for p, Initial residual = 1.0905356e-07, Final residual = 2.0303172e-08, No Iterations 1
GAMG:  Solving for p, Initial residual = 4.572191e-08, Final residual = 4.572191e-08, No Iterations 0
time step continuity errors : sum local = 2.1167418e-09, global = -1.2593767e-10, cumulative = 6.285627e-08
smoothSolver:  Solving for omega, Initial residual = 5.3012408e-06, Final residual = 3.5589664e-07, No Iterations 2
smoothSolver:  Solving for k, Initial residual = 3.3121615e-05, Final residual = 2.1925033e-06, No Iterations 2
ExecutionTime = 575.5 s  ClockTime = 578 s

forceCoeffs forceCoeffs_cl execute:
    Coefficients
        Cd       : 0.052722697	(pressure: 0.044284936	viscous: 0.0084377611)
        Cs       : -0.0029473895	(pressure: -0.0029481747	viscous: 7.8521797e-07)
        Cl       : 0.0034603073	(pressure: 0.0034562189	viscous: 4.0883398e-06)
        CmRoll       : -5.5132311e-07	(pressure: 1.0912803e-09	viscous: -5.5241439e-07)
        CmPitch       : -0.00096879977	(pressure: -0.0009610319	viscous: -7.7678706e-06)
        CmYaw       : -0.00097144863	(pressure: -0.00098823174	viscous: 1.6783107e-05)
        Cd(f)    : 0.026360797
        Cd(r)    : 0.0263619
        Cs(f)    : -0.0024451434
        Cs(r)    : -0.00050224611
        Cl(f)    : 0.00076135387
        Cl(r)    : 0.0026989534
forceCoeffs forceCoeffs_cd execute:
    Coefficients
        Cd       : 0.22506951	(pressure: 0.1890493	viscous: 0.036020213)
        Cs       : -0.0125822	(pressure: -0.012585552	viscous: 3.3520407e-06)
        Cl       : 0.01477181	(pressure: 0.014754357	viscous: 1.7452837e-05)
        CmRoll       : -2.3535599e-06	(pressure: 4.6585996e-09	viscous: -2.3582185e-06)
        CmPitch       : -0.0041357386	(pressure: -0.0041025781	viscous: -3.3160497e-05)
        CmYaw       : -0.0041470464	(pressure: -0.0042186923	viscous: 7.164591e-05)
        Cd(f)    : 0.1125324
        Cd(r)    : 0.11253711
        Cs(f)    : -0.010438146
        Cs(r)    : -0.0021440536
        Cl(f)    : 0.0032501665
        Cl(r)    : 0.011521644
forces force_computation write:
    Sum of forces
        Total    : (95.540137 6.2705106 5.3410392)
        Pressure : (80.249856 6.263102 5.3424622)
        Viscous  : (15.290281 0.0074085843 -0.0014229134)
    Sum of moments
        Total    : (-0.0037155287 -6.5468782 6.5290267)
        Pressure : (7.3544593e-06 -6.6599845 6.4766768)
        Viscous  : (-0.0037228831 0.11310629 0.052349966)


Time = 497

smoothSolver:  Solving for Ux, Initial residual = 3.1054786e-05, Final residual = 9.7474751e-07, No Iterations 2
smoothSolver:  Solving for Uy, Initial residual = 0.00035953692, Final residual = 1.1435133e-05, No Iterations 2
smoothSolver:  Solving for Uz, Initial residual = 0.00034850107, Final residual = 1.0687136e-05, No Iterations 2
GAMG:  Solving for p, Initial residual = 0.00020551542, Final residual = 1.2762712e-06, No Iterations 3
GAMG:  Solving for p, Initial residual = 1.8485346e-05, Final residual = 1.5389899e-07, No Iterations 3
GAMG:  Solving for p, Initial residual = 2.3672152e-06, Final residual = 5.7022972e-08, No Iterations 2
GAMG:  Solving for p, Initial residual = 4.6110853e-07, Final residual = 3.8563576e-08, No Iterations 1
GAMG:  Solving for p, Initial residual = 1.0856753e-07, Final residual = 2.0237409e-08, No Iterations 1
GAMG:  Solving for p, Initial residual = 4.5549612e-08, Final residual = 4.5549612e-08, No Iterations 0
time step continuity errors : sum local = 2.1088443e-09, global = -1.2492748e-10, cumulative = 6.2731343e-08
smoothSolver:  Solving for omega, Initial residual = 5.3897361e-06, Final residual = 3.5351745e-07, No Iterations 2
smoothSolver:  Solving for k, Initial residual = 3.2995354e-05, Final residual = 2.1819923e-06, No Iterations 2
ExecutionTime = 576.32 s  ClockTime = 579 s

forceCoeffs forceCoeffs_cl execute:
    Coefficients
        Cd       : 0.05273383	(pressure: 0.044295633	viscous: 0.0084381971)
        Cs       : -0.0029462503	(pressure: -0.0029468979	viscous: 6.4754761e-07)
        Cl       : 0.0033930812	(pressure: 0.0033890316	viscous: 4.0495783e-06)
        CmRoll       : -5.5871918e-07	(pressure: 1.0630811e-09	viscous: -5.5978226e-07)
        CmPitch       : -0.00094892123	(pressure: -0.00094109659	viscous: -7.8246336e-06)
        CmYaw       : -0.00097100384	(pressure: -0.0009877314	viscous: 1.6727562e-05)
        Cd(f)    : 0.026366356
        Cd(r)    : 0.026367474
        Cs(f)    : -0.002444129
        Cs(r)    : -0.00050212132
        Cl(f)    : 0.00074761935
        Cl(r)    : 0.0026454618
forceCoeffs forceCoeffs_cd execute:
    Coefficients
        Cd       : 0.22511704	(pressure: 0.18909497	viscous: 0.036022075)
        Cs       : -0.012577337	(pressure: -0.012580101	viscous: 2.7643355e-06)
        Cl       : 0.014484827	(pressure: 0.014467539	viscous: 1.7287367e-05)
        CmRoll       : -2.3851332e-06	(pressure: 4.538219e-09	viscous: -2.3896714e-06)
        CmPitch       : -0.0040508785	(pressure: -0.0040174757	viscous: -3.3402815e-05)
        CmYaw       : -0.0041451476	(pressure: -0.0042165564	viscous: 7.1408793e-05)
        Cd(f)    : 0.11255614
        Cd(r)    : 0.11256091
        Cs(f)    : -0.010433816
        Cs(r)    : -0.0021435209
        Cl(f)    : 0.0031915348
        Cl(r)    : 0.011293292
forces force_computation write:
    Sum of forces
        Total    : (95.560312 6.1486885 5.3389749)
        Pressure : (80.269241 6.1413501 5.3401484)
        Viscous  : (15.291071 0.0073383435 -0.0011734374)
    Sum of moments
        Total    : (-0.003765373 -6.5438806 6.3950594)
        Pressure : (7.1644163e-06 -6.6566126 6.3423269)
        Viscous  : (-0.0037725374 0.11273196 0.052732509)


Time = 498

smoothSolver:  Solving for Ux, Initial residual = 3.0899721e-05, Final residual = 9.6891287e-07, No Iterations 2
smoothSolver:  Solving for Uy, Initial residual = 0.00035770892, Final residual = 1.1367908e-05, No Iterations 2
smoothSolver:  Solving for Uz, Initial residual = 0.00034552655, Final residual = 1.0605869e-05, No Iterations 2
GAMG:  Solving for p, Initial residual = 0.00020489366, Final residual = 1.2534155e-06, No Iterations 3
GAMG:  Solving for p, Initial residual = 1.8556661e-05, Final residual = 1.5234975e-07, No Iterations 3
GAMG:  Solving for p, Initial residual = 2.3471135e-06, Final residual = 5.6587541e-08, No Iterations 2
GAMG:  Solving for p, Initial residual = 4.5991029e-07, Final residual = 3.812587e-08, No Iterations 1
GAMG:  Solving for p, Initial residual = 1.0786184e-07, Final residual = 2.0141185e-08, No Iterations 1
GAMG:  Solving for p, Initial residual = 4.5259992e-08, Final residual = 4.5259992e-08, No Iterations 0
time step continuity errors : sum local = 2.0955266e-09, global = -1.2118836e-10, cumulative = 6.2610155e-08
smoothSolver:  Solving for omega, Initial residual = 5.1862571e-06, Final residual = 3.5123167e-07, No Iterations 2
smoothSolver:  Solving for k, Initial residual = 3.2867448e-05, Final residual = 2.1721935e-06, No Iterations 2
ExecutionTime = 577.14 s  ClockTime = 579 s

forceCoeffs forceCoeffs_cl execute:
    Coefficients
        Cd       : 0.05274506	(pressure: 0.04430643	viscous: 0.0084386304)
        Cs       : -0.0029437852	(pressure: -0.0029443032	viscous: 5.1798848e-07)
        Cl       : 0.0033282752	(pressure: 0.0033242555	viscous: 4.0197245e-06)
        CmRoll       : -5.6651125e-07	(pressure: 1.0486152e-09	viscous: -5.6755987e-07)
        CmPitch       : -0.00092981678	(pressure: -0.00092193227	viscous: -7.8845061e-06)
        CmYaw       : -0.00097014121	(pressure: -0.00098681633	viscous: 1.6675123e-05)
        Cd(f)    : 0.026371964
        Cd(r)    : 0.026373097
        Cs(f)    : -0.0024420338
        Cs(r)    : -0.0005017514
        Cl(f)    : 0.00073432082
        Cl(r)    : 0.0025939544
forceCoeffs forceCoeffs_cd execute:
    Coefficients
        Cd       : 0.22516498	(pressure: 0.18914106	viscous: 0.036023924)
        Cs       : -0.012566814	(pressure: -0.012569025	viscous: 2.2112567e-06)
        Cl       : 0.014208175	(pressure: 0.014191015	viscous: 1.7159923e-05)
        CmRoll       : -2.418397e-06	(pressure: 4.4764652e-09	viscous: -2.4228735e-06)
        CmPitch       : -0.0039693229	(pressure: -0.0039356645	viscous: -3.3658406e-05)
        CmYaw       : -0.0041414651	(pressure: -0.0042126501	viscous: 7.1184935e-05)
        Cd(f)    : 0.11258007
        Cd(r)    : 0.11258491
        Cs(f)    : -0.010424872
        Cs(r)    : -0.0021419417
        Cl(f)    : 0.0031347643
        Cl(r)    : 0.01107341
forces force_computation write:
    Sum of forces
        Total    : (95.580662 6.0312519 5.3345079)
        Pressure : (80.288806 6.0239677 5.3354465)
        Viscous  : (15.291856 0.0072842447 -0.00093866007)
    Sum of moments
        Total    : (-0.003817886 -6.5380671 6.2663089)
        Pressure : (7.0669266e-06 -6.6504457 6.2131729)
        Viscous  : (-0.003824953 0.11237856 0.053136006)


Time = 499

smoothSolver:  Solving for Ux, Initial residual = 3.0732762e-05, Final residual = 9.6312881e-07, No Iterations 2
smoothSolver:  Solving for Uy, Initial residual = 0.00035571495, Final residual = 1.128151e-05, No Iterations 2
smoothSolver:  Solving for Uz, Initial residual = 0.00034220958, Final residual = 1.0507123e-05, No Iterations 2
GAMG:  Solving for p, Initial residual = 0.00020436614, Final residual = 1.2316577e-06, No Iterations 3
GAMG:  Solving for p, Initial residual = 1.8388311e-05, Final residual = 1.4917077e-07, No Iterations 3
GAMG:  Solving for p, Initial residual = 2.3187484e-06, Final residual = 5.5786172e-08, No Iterations 2
GAMG:  Solving for p, Initial residual = 4.549676e-07, Final residual = 3.7413471e-08, No Iterations 1
GAMG:  Solving for p, Initial residual = 1.0647183e-07, Final residual = 1.9767469e-08, No Iterations 1
GAMG:  Solving for p, Initial residual = 4.4680802e-08, Final residual = 4.4680802e-08, No Iterations 0
time step continuity errors : sum local = 2.0687985e-09, global = -1.1841543e-10, cumulative = 6.2491739e-08
smoothSolver:  Solving for omega, Initial residual = 5.064303e-06, Final residual = 3.4886457e-07, No Iterations 2
smoothSolver:  Solving for k, Initial residual = 3.2767101e-05, Final residual = 2.1622081e-06, No Iterations 2
ExecutionTime = 577.96 s  ClockTime = 580 s

forceCoeffs forceCoeffs_cl execute:
    Coefficients
        Cd       : 0.052756248	(pressure: 0.044317186	viscous: 0.0084390622)
        Cs       : -0.0029400362	(pressure: -0.0029404305	viscous: 3.9427643e-07)
        Cl       : 0.0032660817	(pressure: 0.003262082	viscous: 3.9996534e-06)
        CmRoll       : -5.7466676e-07	(pressure: 1.0467231e-09	viscous: -5.7571348e-07)
        CmPitch       : -0.00091154601	(pressure: -0.00090359838	viscous: -7.9476345e-06)
        CmYaw       : -0.00096887086	(pressure: -0.0009854957	viscous: 1.6624846e-05)
        Cd(f)    : 0.026377549
        Cd(r)    : 0.026378699
        Cs(f)    : -0.002438889
        Cs(r)    : -0.00050114725
        Cl(f)    : 0.00072149483
        Cl(r)    : 0.0025445869
forceCoeffs forceCoeffs_cd execute:
    Coefficients
        Cd       : 0.22521274	(pressure: 0.18918697	viscous: 0.036025768)
        Cs       : -0.012550809	(pressure: -0.012552493	viscous: 1.6831385e-06)
        Cl       : 0.013942675	(pressure: 0.013925601	viscous: 1.7074241e-05)
        CmRoll       : -2.4532123e-06	(pressure: 4.468388e-09	viscous: -2.4576807e-06)
        CmPitch       : -0.0038913263	(pressure: -0.0038573984	viscous: -3.3927897e-05)
        CmYaw       : -0.0041360421	(pressure: -0.0042070124	viscous: 7.0970305e-05)
        Cd(f)    : 0.11260392
        Cd(r)    : 0.11260882
        Cs(f)    : -0.010411447
        Cs(r)    : -0.0021393627
        Cl(f)    : 0.0030800111
        Cl(r)    : 0.010862664
forces force_computation write:
    Sum of forces
        Total    : (95.600935 5.9185495 5.3277142)
        Pressure : (80.308297 5.9113016 5.3284287)
        Viscous  : (15.292639 0.0072478734 -0.00071447832)
    Sum of moments
        Total    : (-0.0038728484 -6.5295058 6.1431768)
        Pressure : (7.0541751e-06 -6.6415455 6.0896154)
        Viscous  : (-0.0038799025 0.11203973 0.053561447)


Time = 500

smoothSolver:  Solving for Ux, Initial residual = 3.0561145e-05, Final residual = 9.5659874e-07, No Iterations 2
smoothSolver:  Solving for Uy, Initial residual = 0.00035336277, Final residual = 1.1166256e-05, No Iterations 2
smoothSolver:  Solving for Uz, Initial residual = 0.0003384946, Final residual = 1.0385313e-05, No Iterations 2
GAMG:  Solving for p, Initial residual = 0.00020389057, Final residual = 1.2131274e-06, No Iterations 3
GAMG:  Solving for p, Initial residual = 1.8184157e-05, Final residual = 1.4620013e-07, No Iterations 3
GAMG:  Solving for p, Initial residual = 2.302474e-06, Final residual = 5.5031558e-08, No Iterations 2
GAMG:  Solving for p, Initial residual = 4.5223704e-07, Final residual = 3.6544688e-08, No Iterations 1
GAMG:  Solving for p, Initial residual = 1.0469029e-07, Final residual = 1.9361304e-08, No Iterations 1
GAMG:  Solving for p, Initial residual = 4.3926029e-08, Final residual = 4.3926029e-08, No Iterations 0
time step continuity errors : sum local = 2.0339303e-09, global = -1.1896845e-10, cumulative = 6.2372771e-08
smoothSolver:  Solving for omega, Initial residual = 4.9837005e-06, Final residual = 3.464306e-07, No Iterations 2
smoothSolver:  Solving for k, Initial residual = 3.2672556e-05, Final residual = 2.1524768e-06, No Iterations 2
ExecutionTime = 578.78 s  ClockTime = 581 s

forceCoeffs forceCoeffs_cl execute:
    Coefficients
        Cd       : 0.052767084	(pressure: 0.044327592	viscous: 0.008439492)
        Cs       : -0.0029350045	(pressure: -0.0029352811	viscous: 2.7661331e-07)
        Cl       : 0.0032065288	(pressure: 0.0032025384	viscous: 3.9904644e-06)
        CmRoll       : -5.8339027e-07	(pressure: 1.0559503e-09	viscous: -5.8444622e-07)
        CmPitch       : -0.00089410562	(pressure: -0.00088609119	viscous: -8.0144305e-06)
        CmYaw       : -0.00096719538	(pressure: -0.00098377215	viscous: 1.6576764e-05)
        Cd(f)    : 0.026382959
        Cd(r)    : 0.026384125
        Cs(f)    : -0.0024346976
        Cs(r)    : -0.00050030684
        Cl(f)    : 0.00070915879
        Cl(r)    : 0.00249737
forceCoeffs forceCoeffs_cd execute:
    Coefficients
        Cd       : 0.225259	(pressure: 0.1892314	viscous: 0.036027602)
        Cs       : -0.012529329	(pressure: -0.01253051	viscous: 1.1808429e-06)
        Cl       : 0.013688448	(pressure: 0.013671413	viscous: 1.7035014e-05)
        CmRoll       : -2.4904524e-06	(pressure: 4.5077783e-09	viscous: -2.4949601e-06)
        CmPitch       : -0.0038168745	(pressure: -0.0037826615	viscous: -3.4213044e-05)
        CmYaw       : -0.0041288896	(pressure: -0.0041996546	viscous: 7.0765048e-05)
        Cd(f)    : 0.11262701
        Cd(r)    : 0.11263199
        Cs(f)    : -0.010393554
        Cs(r)    : -0.002135775
        Cl(f)    : 0.0030273494
        Cl(r)    : 0.010661098
forces force_computation write:
    Sum of forces
        Total    : (95.620571 5.8106323 5.318596)
        Pressure : (80.327154 5.803401 5.3190973)
        Viscous  : (15.293418 0.0072312217 -0.000501258)
    Sum of moments
        Total    : (-0.0039316387 -6.5182143 6.0256409)
        Pressure : (7.11636e-06 -6.62993 5.9716293)
        Viscous  : (-0.0039387551 0.11171569 0.054011605)


End

Finalising parallel run
