/*---------------------------------------------------------------------------*\
  =========                 |
  \\      /  F ield         | OpenFOAM: The Open Source CFD Toolbox
   \\    /   O peration     | Website:  https://openfoam.org
    \\  /    A nd           | Version:  11
     \\/     M anipulation  |
\*---------------------------------------------------------------------------*/
Build  : 11-e1fc8c682ae6
Exec   : snappyHexMesh -overwrite
Date   : Nov 01 2024
Time   : 16:47:08
Host   : "yokeap-amd"
PID    : 19917
I/O    : uncollated
Case   : /media/yokeap/data/git/prometheus/hull_opt_core8
nProcs : 1
sigFpe : Enabling floating point exception trapping (FOAM_SIGFPE).
fileModificationChecking : Monitoring run-time modified files using timeStampMaster (fileModificationSkew 10)
allowSystemOperations : Allowing user-supplied system call operations

// * * * * * * * * * * * * * * * * * * * * * * * * * * * * * * * * * * * * * //
Create time

Create mesh for time = 0

Read mesh in = 0.158324 s
Reading "snappyHexMeshDict"


Overall mesh bounding box  : (-15.689 -12.878 -8.585) (12.551 0 3.434)
Relative tolerance         : 1e-06
Absolute matching distance : 3.32836e-05

Reading refinement surfaces...
Read refinement surfaces in = 0.13056 s

Reading refinement regions...
Read refinement regions in = 3.4e-05 s

Reading features...
Read edgeMesh ship.eMesh
    points      : 927
    edges       : 911
    boundingBox : (-0.113503 -0.429241 0) (6.16209 0.429241 0.572322)

Refinement level according to distance to "ship.eMesh" (927 points, 911 edges).
    level 0 for all cells within 0 metre.
Read features in = 0.001256 s


Determining initial surface intersections
-----------------------------------------

Edge intersection testing:
    Number of edges             : 2650933
    Number of edges to retest   : 2650933
    Number of intersected edges : 38814
Calculated surface intersections in = 2.84769 s

Initial mesh : cells:862782  faces:2650933  points:926314
Cells per refinement level:
    0	862782

Adding patches for surface regions
----------------------------------

Patch Type                Region                        
----- ----                ------                        
hull:

6     wall                hull                          

Added patches in = 0.031588 s

Selecting distributor none
Cell selection insidePoints: 1((-0.7 0 0))

Refinement phase
----------------

Found point (-0.7 0 0) in cell 508416 on processor 0

Feature refinement iteration 0
------------------------------

No cells marked for refinement since reached limit 500000.
Determined cells to refine in = 3.53093 s
Selected for feature refinement : 0 cells (out of 862782)
Stopping refining since too few cells selected.


Surface refinement iteration 0
------------------------------

No cells marked for refinement since reached limit 500000.
Determined cells to refine in = 0.008979 s
Selected for refinement : 0 cells (out of 862782)
Stopping refining since too few cells selected.


Removing mesh beyond surface intersections
------------------------------------------

Selecting all cells in regions containing any of the points in 1((-0.7 0 0))
Selected: 716173 cells.
Edge intersection testing:
    Number of edges             : 2231754
    Number of edges to retest   : 41296
    Number of intersected edges : 38814

Shell refinement iteration 0
----------------------------

No cells marked for refinement since reached limit 500000.
Determined cells to refine in = 10.5981 s
Selected for internal refinement : 0 cells (out of 716173)
Stopping refining since too few cells selected.


Dangling coarse cells refinement iteration 0
--------------------------------------------

Determined cells to refine in = 0.015134 s
Selected for refinement : 0 cells (out of 716173)
Stopping refining since too few cells selected.


Dangling coarse cells refinement iteration 0
--------------------------------------------

Determined cells to refine in = 0.014844 s
Selected for refinement : 0 cells (out of 716173)
Stopping refining since too few cells selected.


Splitting mesh at surface intersections
---------------------------------------

Introducing baffles for 38814 faces that are intersected by the surface.

Edge intersection testing:
    Number of edges             : 2270528
    Number of edges to retest   : 280245
    Number of intersected edges : 77309
Created baffles in = 1.21306 s


After introducing baffles : cells:716173  faces:2270528  points:799726
Cells per refinement level:
    0	716173

Introducing baffles to block off problem cells
----------------------------------------------

markFacesOnProblemCells : marked 70160 additional internal faces to be converted into baffles.
Analyzed problem cells in = 0.909946 s


Introducing baffles to delete problem cells.

Edge intersection testing:
    Number of edges             : 2340688
    Number of edges to retest   : 216048
    Number of intersected edges : 77479
Created baffles in = 1.29214 s


After introducing baffles : cells:716173  faces:2340688  points:799726
Cells per refinement level:
    0	716173

Remove unreachable sections of mesh
-----------------------------------

Keeping all cells in regions containing any point in 1((-0.7 0 0))
Selected for keeping : 671117 cells.
Edge intersection testing:
    Number of edges             : 2090741
    Number of edges to retest   : 0
    Number of intersected edges : 38706
Split mesh in = 12.1462 s


After subsetting : cells:671117  faces:2090741  points:749335
Cells per refinement level:
    0	671117

Handling cells with snap problems
---------------------------------

Introducing baffles for 38706 faces that are intersected by the surface.

Edge intersection testing:
    Number of edges             : 2090741
    Number of edges to retest   : 143384
    Number of intersected edges : 38706
Created baffles in = 0.820672 s


After introducing baffles : cells:671117  faces:2090741  points:749335
Cells per refinement level:
    0	671117

Introducing baffles to block off problem cells
----------------------------------------------

markFacesOnProblemCells : marked 0 additional internal faces to be converted into baffles.
Analyzed problem cells in = 0.785233 s


Introducing baffles to delete problem cells.

Edge intersection testing:
    Number of edges             : 2090741
    Number of edges to retest   : 0
    Number of intersected edges : 38706
Created baffles in = 0.712739 s


After introducing baffles : cells:671117  faces:2090741  points:749335
Cells per refinement level:
    0	671117

Remove unreachable sections of mesh
-----------------------------------

Split mesh in = 10.3688 s


After subsetting : cells:671117  faces:2090741  points:749335
Cells per refinement level:
    0	671117

Merge free-standing baffles
---------------------------

freeStandingBaffles : detected 84 free-standing baffles out of 90

freeStandingBaffles : detected 0 planar (within 45 degrees) free-standing baffles out of 84

Detected free-standing baffles : 0
Merged free-standing baffles in = 0.217591 s


dupNonManifoldPoints : Found : 91 non-manifold points (out of 749335)
Edge intersection testing:
    Number of edges             : 2090741
    Number of edges to retest   : 0
    Number of intersected edges : 38706
Detected unsplittable baffles : 0

Merge refined boundary faces
----------------------------

Merging 0 sets of faces.

No faces merged ...

Merging all points on surface that
- are used by only two boundary faces and
- make an angle with a cosine of more than 0.707107.

No straight edges simplified and no points removed ...
Refined mesh : cells:671117  faces:2090741  points:749426
Cells per refinement level:
    0	671117
Writing mesh to time constant
Wrote mesh in = 1.50225 s.
Mesh refined in = 44.1365 s.

Morphing phase
--------------


Snapping to features in 10 iterations ...
Constructing mesh displacer ...
Using mesh parameters 
{
    maxNonOrtho     70;
    maxBoundarySkewness 20;
    maxInternalSkewness 4;
    maxConcave      80;
    minVol          -1e+30;
    minTetQuality   1e-30;
    minTwist        0.05;
    minDeterminant  0.001;
    minFaceWeight   0.05;
    minVolRatio     0.01;
    nSmoothScale    4;
    errorReduction  0.75;
    relaxed
    {
        maxNonOrtho     75;
    }
}


Checking initial mesh ...
Checking faces in error :
    non-orthogonality > 70  degrees                        : 960
    faces with face-decomposition tet quality < 1e-30      : 0
    faces with concavity > 80  degrees                     : 0
    faces with skewness > 4   (internal) or 20  (boundary) : 0
    faces with interpolation weights (0..1)  < 0.05        : 0
    faces with volume ratio of neighbour cells < 0.01      : 0
    faces with face twist < 0.05                           : 0
    faces on cells with determinant < 0.001                : 0
Detected 960 illegal faces (concave, zero area or negative cell pyramid volume)
Checked initial mesh in = 0.975727 s


Smoothing patch points ...
Smoothing iteration 0
Found 182 non-manifold point(s).

Scaling iteration 0
Moving mesh using displacement scaling : min:1  max:1
Checking faces in error :
    non-orthogonality > 70  degrees                        : 960
    faces with face-decomposition tet quality < 1e-30      : 0
    faces with concavity > 80  degrees                     : 0
    faces with skewness > 4   (internal) or 20  (boundary) : 0
    faces with interpolation weights (0..1)  < 0.05        : 0
    faces with volume ratio of neighbour cells < 0.01      : 0
    faces with face twist < 0.05                           : 4
    faces on cells with determinant < 0.001                : 0

Scaling iteration 1
Moving mesh using displacement scaling : min:0.75  max:1
Checking faces in error :
    non-orthogonality > 70  degrees                        : 960
    faces with face-decomposition tet quality < 1e-30      : 0
    faces with concavity > 80  degrees                     : 0
    faces with skewness > 4   (internal) or 20  (boundary) : 0
    faces with interpolation weights (0..1)  < 0.05        : 0
    faces with volume ratio of neighbour cells < 0.01      : 0
    faces with face twist < 0.05                           : 0
    faces on cells with determinant < 0.001                : 0
Successfully moved mesh

Smoothing iteration 1
Found 0 non-manifold point(s).

Scaling iteration 0
Moving mesh using displacement scaling : min:1  max:1
Checking faces in error :
    non-orthogonality > 70  degrees                        : 960
    faces with face-decomposition tet quality < 1e-30      : 0
    faces with concavity > 80  degrees                     : 0
    faces with skewness > 4   (internal) or 20  (boundary) : 0
    faces with interpolation weights (0..1)  < 0.05        : 0
    faces with volume ratio of neighbour cells < 0.01      : 0
    faces with face twist < 0.05                           : 0
    faces on cells with determinant < 0.001                : 0
Successfully moved mesh

Smoothing iteration 2
Found 0 non-manifold point(s).

Scaling iteration 0
Moving mesh using displacement scaling : min:1  max:1
Checking faces in error :
    non-orthogonality > 70  degrees                        : 960
    faces with face-decomposition tet quality < 1e-30      : 0
    faces with concavity > 80  degrees                     : 0
    faces with skewness > 4   (internal) or 20  (boundary) : 0
    faces with interpolation weights (0..1)  < 0.05        : 0
    faces with volume ratio of neighbour cells < 0.01      : 0
    faces with face twist < 0.05                           : 0
    faces on cells with determinant < 0.001                : 0
Successfully moved mesh

Patch points smoothed in = 5.95826 s



Morph iteration 0
-----------------
Calculating patchDisplacement as distance to nearest surface point ...
Wanted displacement : average:0.0041716 min:9.82115e-08 max:0.0142393
Calculated surface displacement in = 0.058485 s


Detecting near surfaces ...
Overriding nearest with intersection of close gaps at 74 out of 39499 points.
Overriding displacement on features :
   implicit features    : false
   explicit features    : true
   multi-patch features : false

Detected 0 baffle edges out of 78383 edges.
Initially selected 1303 points out of 39499 for reverse attraction.
Selected 3350 points out of 39499 for reverse attraction.
Stringing feature edges : changed 60 points
Stringing feature edges : changed 0 points
Attraction:
     linear   : max:(-0.00364225 0.00824415 0.0110238) avg:(-5.65387e-05 0.00145512 -0.00124472)
     feature  : max:(0.00585588 -7.97818e-05 0.0235958) avg:(-6.16942e-06 -0.000148698 3.17247e-05)
Feature analysis : total master points:39499 attraction to :
    feature point   : 2
    feature edge    : 752
    nearest surface : 0
    rest            : 38745

--> FOAM Warning : Displacement (1.63868e-06 8.05058e-06 -0.000193264) at mesh point 592838 coord (1.961 -0.251523 0.00596822) points through the surrounding patch faces
Smoothing displacement ...
Iteration 0
Iteration 10
Iteration 20
Iteration 30
Iteration 40
Iteration 50
Iteration 60
Iteration 70
Iteration 80
Iteration 90
Displacement smoothed in = 3.31661 s


Moving mesh ...

Iteration 0
Moving mesh using displacement scaling : min:1  max:1
Checking faces in error :
    non-orthogonality > 70  degrees                        : 960
    faces with face-decomposition tet quality < 1e-30      : 0
    faces with concavity > 80  degrees                     : 0
    faces with skewness > 4   (internal) or 20  (boundary) : 0
    faces with interpolation weights (0..1)  < 0.05        : 0
    faces with volume ratio of neighbour cells < 0.01      : 0
    faces with face twist < 0.05                           : 0
    faces on cells with determinant < 0.001                : 0
Successfully moved mesh
Moved mesh in = 1.38573 s



Morph iteration 1
-----------------
Calculating patchDisplacement as distance to nearest surface point ...
Wanted displacement : average:0.0038424 min:8.52438e-08 max:0.0135552
Calculated surface displacement in = 0.060278 s


Detecting near surfaces ...
Overriding nearest with intersection of close gaps at 77 out of 39499 points.
Overriding displacement on features :
   implicit features    : false
   explicit features    : true
   multi-patch features : false

Detected 0 baffle edges out of 78383 edges.
Initially selected 1306 points out of 39499 for reverse attraction.
Selected 3353 points out of 39499 for reverse attraction.
Stringing feature edges : changed 55 points
Stringing feature edges : changed 0 points
Attraction:
     linear   : max:(-0.00346727 0.0078481 0.0104942) avg:(-5.1499e-05 0.00132418 -0.00112798)
     feature  : max:(0.0057913 -7.89433e-05 0.0234968) avg:(-5.89453e-06 -0.000146818 2.95606e-05)
Feature analysis : total master points:39499 attraction to :
    feature point   : 2
    feature edge    : 752
    nearest surface : 0
    rest            : 38745

--> FOAM Warning : Displacement (2.28029e-06 1.17869e-05 -0.000377709) at mesh point 592838 coord (1.961 -0.251515 0.00577496) points through the surrounding patch faces
Smoothing displacement ...
Iteration 0
Iteration 10
Iteration 20
Iteration 30
Iteration 40
Iteration 50
Iteration 60
Iteration 70
Iteration 80
Iteration 90
Displacement smoothed in = 3.2994 s


Moving mesh ...

Iteration 0
Moving mesh using displacement scaling : min:1  max:1
Checking faces in error :
    non-orthogonality > 70  degrees                        : 960
    faces with face-decomposition tet quality < 1e-30      : 0
    faces with concavity > 80  degrees                     : 0
    faces with skewness > 4   (internal) or 20  (boundary) : 0
    faces with interpolation weights (0..1)  < 0.05        : 0
    faces with volume ratio of neighbour cells < 0.01      : 0
    faces with face twist < 0.05                           : 0
    faces on cells with determinant < 0.001                : 0
Successfully moved mesh
Moved mesh in = 1.38537 s



Morph iteration 2
-----------------
Calculating patchDisplacement as distance to nearest surface point ...
Wanted displacement : average:0.0032402 min:1.42407e-07 max:0.0121356
Calculated surface displacement in = 0.058745 s


Detecting near surfaces ...
Overriding nearest with intersection of close gaps at 79 out of 39499 points.
Overriding displacement on features :
   implicit features    : false
   explicit features    : true
   multi-patch features : false

Detected 0 baffle edges out of 78383 edges.
Initially selected 1312 points out of 39499 for reverse attraction.
Selected 3360 points out of 39499 for reverse attraction.
Stringing feature edges : changed 53 points
Stringing feature edges : changed 3 points
Stringing feature edges : changed 0 points
Attraction:
     linear   : max:(-0.00310415 0.00702618 0.00939521) avg:(-4.20048e-05 0.00108751 -0.000915186)
     feature  : max:(0.00561414 -7.51288e-05 0.0230598) avg:(-5.53432e-06 -0.000139984 2.59337e-05)
Feature analysis : total master points:39499 attraction to :
    feature point   : 2
    feature edge    : 758
    nearest surface : 0
    rest            : 38739

--> FOAM Warning : Displacement (1.20089e-06 8.9941e-06 -0.000507889) at mesh point 592838 coord (1.961 -0.251504 0.00539725) points through the surrounding patch faces
Smoothing displacement ...
Iteration 0
Iteration 10
Iteration 20
Iteration 30
Iteration 40
Iteration 50
Iteration 60
Iteration 70
Iteration 80
Iteration 90
Displacement smoothed in = 3.3167 s


Moving mesh ...

Iteration 0
Moving mesh using displacement scaling : min:1  max:1
Checking faces in error :
    non-orthogonality > 70  degrees                        : 960
    faces with face-decomposition tet quality < 1e-30      : 0
    faces with concavity > 80  degrees                     : 0
    faces with skewness > 4   (internal) or 20  (boundary) : 0
    faces with interpolation weights (0..1)  < 0.05        : 0
    faces with volume ratio of neighbour cells < 0.01      : 0
    faces with face twist < 0.05                           : 0
    faces on cells with determinant < 0.001                : 0
Successfully moved mesh
Moved mesh in = 1.38472 s



Morph iteration 3
-----------------
Calculating patchDisplacement as distance to nearest surface point ...
Wanted displacement : average:0.00248971 min:1.08672e-07 max:0.0101043
Calculated surface displacement in = 0.055177 s


Detecting near surfaces ...
Overriding nearest with intersection of close gaps at 84 out of 39499 points.
Overriding displacement on features :
   implicit features    : false
   explicit features    : true
   multi-patch features : false

Detected 0 baffle edges out of 78383 edges.
Initially selected 1319 points out of 39499 for reverse attraction.
Selected 3365 points out of 39499 for reverse attraction.
Stringing feature edges : changed 46 points
Stringing feature edges : changed 3 points
Stringing feature edges : changed 0 points
Attraction:
     linear   : max:(-0.000447352 -0.00259132 0.0120332) avg:(-3.03349e-05 0.000799282 -0.000654269)
     feature  : max:(0.00527198 -6.85097e-05 0.0220702) avg:(-5.12188e-06 -0.000126784 2.15639e-05)
Feature analysis : total master points:39499 attraction to :
    feature point   : 1
    feature edge    : 764
    nearest surface : 0
    rest            : 38734

--> FOAM Warning : Displacement (-1.76909e-06 1.34989e-07 -0.000553283) at mesh point 592838 coord (1.96101 -0.251495 0.00488936) points through the surrounding patch faces
Smoothing displacement ...
Iteration 0
Iteration 10
Iteration 20
Iteration 30
Iteration 40
Iteration 50
Iteration 60
Iteration 70
Iteration 80
Iteration 90
Displacement smoothed in = 3.30972 s


Moving mesh ...

Iteration 0
Moving mesh using displacement scaling : min:1  max:1
Checking faces in error :
    non-orthogonality > 70  degrees                        : 960
    faces with face-decomposition tet quality < 1e-30      : 0
    faces with concavity > 80  degrees                     : 0
    faces with skewness > 4   (internal) or 20  (boundary) : 0
    faces with interpolation weights (0..1)  < 0.05        : 0
    faces with volume ratio of neighbour cells < 0.01      : 0
    faces with face twist < 0.05                           : 1
    faces on cells with determinant < 0.001                : 0

Iteration 1
Moving mesh using displacement scaling : min:0.75  max:1
Checking faces in error :
    non-orthogonality > 70  degrees                        : 960
    faces with face-decomposition tet quality < 1e-30      : 0
    faces with concavity > 80  degrees                     : 0
    faces with skewness > 4   (internal) or 20  (boundary) : 0
    faces with interpolation weights (0..1)  < 0.05        : 0
    faces with volume ratio of neighbour cells < 0.01      : 0
    faces with face twist < 0.05                           : 1
    faces on cells with determinant < 0.001                : 0

Iteration 2
Moving mesh using displacement scaling : min:0.5625  max:1
Checking faces in error :
    non-orthogonality > 70  degrees                        : 960
    faces with face-decomposition tet quality < 1e-30      : 0
    faces with concavity > 80  degrees                     : 0
    faces with skewness > 4   (internal) or 20  (boundary) : 0
    faces with interpolation weights (0..1)  < 0.05        : 0
    faces with volume ratio of neighbour cells < 0.01      : 0
    faces with face twist < 0.05                           : 0
    faces on cells with determinant < 0.001                : 0
Successfully moved mesh
Moved mesh in = 4.4011 s



Morph iteration 4
-----------------
Calculating patchDisplacement as distance to nearest surface point ...
Wanted displacement : average:0.00173654 min:1.43193e-07 max:0.00782516
Calculated surface displacement in = 0.052405 s


Detecting near surfaces ...
Overriding nearest with intersection of close gaps at 94 out of 39499 points.
Overriding displacement on features :
   implicit features    : false
   explicit features    : true
   multi-patch features : false

Detected 0 baffle edges out of 78383 edges.
Initially selected 1323 points out of 39499 for reverse attraction.
Selected 3367 points out of 39499 for reverse attraction.
Stringing feature edges : changed 45 points
Stringing feature edges : changed 3 points
Stringing feature edges : changed 0 points
Attraction:
     linear   : max:(-0.000492442 -0.000910192 0.0127105) avg:(-1.8699e-05 0.00052292 -0.000401988)
     feature  : max:(0.00471041 -5.60301e-05 0.0203648) avg:(-4.27608e-06 -0.000105969 1.71593e-05)
Feature analysis : total master points:39499 attraction to :
    feature point   : 1
    feature edge    : 765
    nearest surface : 0
    rest            : 38733

--> FOAM Warning : Displacement (-5.2021e-06 -1.12254e-05 -0.000508845) at mesh point 592838 coord (1.961 -0.251494 0.00433608) points through the surrounding patch faces
Smoothing displacement ...
Iteration 0
Iteration 10
Iteration 20
Iteration 30
Iteration 40
Iteration 50
Iteration 60
Iteration 70
Iteration 80
Iteration 90
Displacement smoothed in = 3.3285 s


Moving mesh ...

Iteration 0
Moving mesh using displacement scaling : min:1  max:1
Checking faces in error :
    non-orthogonality > 70  degrees                        : 960
    faces with face-decomposition tet quality < 1e-30      : 0
    faces with concavity > 80  degrees                     : 0
    faces with skewness > 4   (internal) or 20  (boundary) : 0
    faces with interpolation weights (0..1)  < 0.05        : 0
    faces with volume ratio of neighbour cells < 0.01      : 0
    faces with face twist < 0.05                           : 1
    faces on cells with determinant < 0.001                : 0

Iteration 1
Moving mesh using displacement scaling : min:0.75  max:1
Checking faces in error :
    non-orthogonality > 70  degrees                        : 960
    faces with face-decomposition tet quality < 1e-30      : 0
    faces with concavity > 80  degrees                     : 0
    faces with skewness > 4   (internal) or 20  (boundary) : 0
    faces with interpolation weights (0..1)  < 0.05        : 0
    faces with volume ratio of neighbour cells < 0.01      : 0
    faces with face twist < 0.05                           : 1
    faces on cells with determinant < 0.001                : 0

Iteration 2
Moving mesh using displacement scaling : min:0.5625  max:1
Checking faces in error :
    non-orthogonality > 70  degrees                        : 960
    faces with face-decomposition tet quality < 1e-30      : 0
    faces with concavity > 80  degrees                     : 0
    faces with skewness > 4   (internal) or 20  (boundary) : 0
    faces with interpolation weights (0..1)  < 0.05        : 0
    faces with volume ratio of neighbour cells < 0.01      : 0
    faces with face twist < 0.05                           : 1
    faces on cells with determinant < 0.001                : 0

Iteration 3
Moving mesh using displacement scaling : min:0.421875  max:1
Checking faces in error :
    non-orthogonality > 70  degrees                        : 960
    faces with face-decomposition tet quality < 1e-30      : 0
    faces with concavity > 80  degrees                     : 0
    faces with skewness > 4   (internal) or 20  (boundary) : 0
    faces with interpolation weights (0..1)  < 0.05        : 0
    faces with volume ratio of neighbour cells < 0.01      : 0
    faces with face twist < 0.05                           : 1
    faces on cells with determinant < 0.001                : 0

Iteration 4
Moving mesh using displacement scaling : min:0.316406  max:1
Checking faces in error :
    non-orthogonality > 70  degrees                        : 960
    faces with face-decomposition tet quality < 1e-30      : 0
    faces with concavity > 80  degrees                     : 0
    faces with skewness > 4   (internal) or 20  (boundary) : 0
    faces with interpolation weights (0..1)  < 0.05        : 0
    faces with volume ratio of neighbour cells < 0.01      : 0
    faces with face twist < 0.05                           : 0
    faces on cells with determinant < 0.001                : 0
Successfully moved mesh
Moved mesh in = 7.69118 s



Morph iteration 5
-----------------
Calculating patchDisplacement as distance to nearest surface point ...
Wanted displacement : average:0.00108922 min:5.79781e-09 max:0.00633433
Calculated surface displacement in = 0.049076 s


Detecting near surfaces ...
Overriding nearest with intersection of close gaps at 102 out of 39499 points.
Overriding displacement on features :
   implicit features    : false
   explicit features    : true
   multi-patch features : false

Detected 4 baffle edges out of 78383 edges.
Initially selected 1325 points out of 39499 for reverse attraction.
Selected 3372 points out of 39499 for reverse attraction.
Stringing feature edges : changed 41 points
Stringing feature edges : changed 1 points
Stringing feature edges : changed 1 points
Stringing feature edges : changed 1 points
Stringing feature edges : changed 0 points
Attraction:
     linear   : max:(-0.000444062 -0.0086056 -0.000383871) avg:(-8.93216e-06 0.000305119 -0.000208121)
     feature  : max:(0.00393399 -3.93964e-05 0.0179064) avg:(-3.10898e-06 -7.96727e-05 1.24148e-05)
Feature analysis : total master points:39499 attraction to :
    feature point   : 2
    feature edge    : 764
    nearest surface : 0
    rest            : 38733

--> FOAM Warning : Displacement (1.80789e-06 -3.73121e-06 -2.6832e-05) at mesh point 689427 coord (4.35472 -0.423594 0.296694) points through the surrounding patch faces
Smoothing displacement ...
Iteration 0
Iteration 10
Iteration 20
Iteration 30
Iteration 40
Iteration 50
Iteration 60
Iteration 70
Iteration 80
Iteration 90
Displacement smoothed in = 3.27107 s


Moving mesh ...

Iteration 0
Moving mesh using displacement scaling : min:1  max:1
Checking faces in error :
    non-orthogonality > 70  degrees                        : 960
    faces with face-decomposition tet quality < 1e-30      : 7
    faces with concavity > 80  degrees                     : 0
    faces with skewness > 4   (internal) or 20  (boundary) : 0
    faces with interpolation weights (0..1)  < 0.05        : 0
    faces with volume ratio of neighbour cells < 0.01      : 0
    faces with face twist < 0.05                           : 0
    faces on cells with determinant < 0.001                : 0

Iteration 1
Moving mesh using displacement scaling : min:0.75  max:1
Checking faces in error :
    non-orthogonality > 70  degrees                        : 960
    faces with face-decomposition tet quality < 1e-30      : 4
    faces with concavity > 80  degrees                     : 0
    faces with skewness > 4   (internal) or 20  (boundary) : 0
    faces with interpolation weights (0..1)  < 0.05        : 0
    faces with volume ratio of neighbour cells < 0.01      : 0
    faces with face twist < 0.05                           : 1
    faces on cells with determinant < 0.001                : 0

Iteration 2
Moving mesh using displacement scaling : min:0.5625  max:1
Checking faces in error :
    non-orthogonality > 70  degrees                        : 960
    faces with face-decomposition tet quality < 1e-30      : 3
    faces with concavity > 80  degrees                     : 0
    faces with skewness > 4   (internal) or 20  (boundary) : 0
    faces with interpolation weights (0..1)  < 0.05        : 0
    faces with volume ratio of neighbour cells < 0.01      : 0
    faces with face twist < 0.05                           : 1
    faces on cells with determinant < 0.001                : 0

Iteration 3
Moving mesh using displacement scaling : min:0.421875  max:1
Checking faces in error :
    non-orthogonality > 70  degrees                        : 960
    faces with face-decomposition tet quality < 1e-30      : 2
    faces with concavity > 80  degrees                     : 0
    faces with skewness > 4   (internal) or 20  (boundary) : 0
    faces with interpolation weights (0..1)  < 0.05        : 0
    faces with volume ratio of neighbour cells < 0.01      : 0
    faces with face twist < 0.05                           : 1
    faces on cells with determinant < 0.001                : 0

Iteration 4
Moving mesh using displacement scaling : min:0.316406  max:1
Checking faces in error :
    non-orthogonality > 70  degrees                        : 960
    faces with face-decomposition tet quality < 1e-30      : 1
    faces with concavity > 80  degrees                     : 0
    faces with skewness > 4   (internal) or 20  (boundary) : 0
    faces with interpolation weights (0..1)  < 0.05        : 0
    faces with volume ratio of neighbour cells < 0.01      : 0
    faces with face twist < 0.05                           : 1
    faces on cells with determinant < 0.001                : 0

Iteration 5
Displacement scaling for error reduction set to 0.
Moving mesh using displacement scaling : min:0.237305  max:1
Checking faces in error :
    non-orthogonality > 70  degrees                        : 960
    faces with face-decomposition tet quality < 1e-30      : 0
    faces with concavity > 80  degrees                     : 0
    faces with skewness > 4   (internal) or 20  (boundary) : 0
    faces with interpolation weights (0..1)  < 0.05        : 0
    faces with volume ratio of neighbour cells < 0.01      : 0
    faces with face twist < 0.05                           : 1
    faces on cells with determinant < 0.001                : 0

Iteration 6
Moving mesh using displacement scaling : min:0  max:1
Checking faces in error :
    non-orthogonality > 70  degrees                        : 960
    faces with face-decomposition tet quality < 1e-30      : 0
    faces with concavity > 80  degrees                     : 0
    faces with skewness > 4   (internal) or 20  (boundary) : 0
    faces with interpolation weights (0..1)  < 0.05        : 0
    faces with volume ratio of neighbour cells < 0.01      : 0
    faces with face twist < 0.05                           : 0
    faces on cells with determinant < 0.001                : 0
Successfully moved mesh
Moved mesh in = 10.4882 s



Morph iteration 6
-----------------
Calculating patchDisplacement as distance to nearest surface point ...
Wanted displacement : average:0.000600027 min:7.66468e-09 max:0.00486521
Calculated surface displacement in = 0.045638 s


Detecting near surfaces ...
Overriding nearest with intersection of close gaps at 104 out of 39499 points.
Overriding displacement on features :
   implicit features    : false
   explicit features    : true
   multi-patch features : false

Detected 48 baffle edges out of 78383 edges.
Initially selected 1321 points out of 39499 for reverse attraction.
Selected 3368 points out of 39499 for reverse attraction.
Stringing feature edges : changed 32 points
Stringing feature edges : changed 5 points
Stringing feature edges : changed 4 points
Stringing feature edges : changed 4 points
Stringing feature edges : changed 0 points
Attraction:
     linear   : max:(-0.000823774 -0.00750203 -0.000680523) avg:(-2.48227e-06 0.00016189 -8.41636e-05)
     feature  : max:(0.000894831 -0.00509288 0.00971213) avg:(-2.04825e-06 -5.15036e-05 8.17421e-06)
Feature analysis : total master points:39499 attraction to :
    feature point   : 1
    feature edge    : 776
    nearest surface : 0
    rest            : 38722

--> FOAM Warning : Displacement (5.03087e-06 -0.000140383 -3.71072e-05) at mesh point 689427 coord (4.35473 -0.423598 0.296667) points through the surrounding patch faces
Smoothing displacement ...
Iteration 0
Iteration 10
Iteration 20
Iteration 30
Iteration 40
Iteration 50
Iteration 60
Iteration 70
Iteration 80
Iteration 90
Displacement smoothed in = 3.28809 s


Moving mesh ...

Iteration 0
Moving mesh using displacement scaling : min:1  max:1
Checking faces in error :
    non-orthogonality > 70  degrees                        : 960
    faces with face-decomposition tet quality < 1e-30      : 10
    faces with concavity > 80  degrees                     : 0
    faces with skewness > 4   (internal) or 20  (boundary) : 0
    faces with interpolation weights (0..1)  < 0.05        : 0
    faces with volume ratio of neighbour cells < 0.01      : 0
    faces with face twist < 0.05                           : 2
    faces on cells with determinant < 0.001                : 0

Iteration 1
Moving mesh using displacement scaling : min:0.75  max:1
Checking faces in error :
    non-orthogonality > 70  degrees                        : 960
    faces with face-decomposition tet quality < 1e-30      : 8
    faces with concavity > 80  degrees                     : 0
    faces with skewness > 4   (internal) or 20  (boundary) : 0
    faces with interpolation weights (0..1)  < 0.05        : 0
    faces with volume ratio of neighbour cells < 0.01      : 0
    faces with face twist < 0.05                           : 2
    faces on cells with determinant < 0.001                : 0

Iteration 2
Moving mesh using displacement scaling : min:0.5625  max:1
Checking faces in error :
    non-orthogonality > 70  degrees                        : 960
    faces with face-decomposition tet quality < 1e-30      : 7
    faces with concavity > 80  degrees                     : 0
    faces with skewness > 4   (internal) or 20  (boundary) : 0
    faces with interpolation weights (0..1)  < 0.05        : 0
    faces with volume ratio of neighbour cells < 0.01      : 0
    faces with face twist < 0.05                           : 1
    faces on cells with determinant < 0.001                : 0

Iteration 3
Moving mesh using displacement scaling : min:0.421875  max:1
Checking faces in error :
    non-orthogonality > 70  degrees                        : 960
    faces with face-decomposition tet quality < 1e-30      : 6
    faces with concavity > 80  degrees                     : 0
    faces with skewness > 4   (internal) or 20  (boundary) : 0
    faces with interpolation weights (0..1)  < 0.05        : 0
    faces with volume ratio of neighbour cells < 0.01      : 0
    faces with face twist < 0.05                           : 1
    faces on cells with determinant < 0.001                : 0

Iteration 4
Moving mesh using displacement scaling : min:0.316406  max:1
Checking faces in error :
    non-orthogonality > 70  degrees                        : 960
    faces with face-decomposition tet quality < 1e-30      : 6
    faces with concavity > 80  degrees                     : 0
    faces with skewness > 4   (internal) or 20  (boundary) : 0
    faces with interpolation weights (0..1)  < 0.05        : 0
    faces with volume ratio of neighbour cells < 0.01      : 0
    faces with face twist < 0.05                           : 1
    faces on cells with determinant < 0.001                : 0

Iteration 5
Displacement scaling for error reduction set to 0.
Moving mesh using displacement scaling : min:0.237305  max:1
Checking faces in error :
    non-orthogonality > 70  degrees                        : 960
    faces with face-decomposition tet quality < 1e-30      : 4
    faces with concavity > 80  degrees                     : 0
    faces with skewness > 4   (internal) or 20  (boundary) : 0
    faces with interpolation weights (0..1)  < 0.05        : 0
    faces with volume ratio of neighbour cells < 0.01      : 0
    faces with face twist < 0.05                           : 1
    faces on cells with determinant < 0.001                : 0

Iteration 6
Moving mesh using displacement scaling : min:0  max:1
Checking faces in error :
    non-orthogonality > 70  degrees                        : 960
    faces with face-decomposition tet quality < 1e-30      : 0
    faces with concavity > 80  degrees                     : 0
    faces with skewness > 4   (internal) or 20  (boundary) : 0
    faces with interpolation weights (0..1)  < 0.05        : 0
    faces with volume ratio of neighbour cells < 0.01      : 0
    faces with face twist < 0.05                           : 0
    faces on cells with determinant < 0.001                : 0
Successfully moved mesh
Moved mesh in = 10.5321 s



Morph iteration 7
-----------------
Calculating patchDisplacement as distance to nearest surface point ...
Wanted displacement : average:0.000289734 min:4.24114e-08 max:0.00380187
Calculated surface displacement in = 0.042805 s


Detecting near surfaces ...
Overriding nearest with intersection of close gaps at 118 out of 39499 points.
Overriding displacement on features :
   implicit features    : false
   explicit features    : true
   multi-patch features : false

Detected 97 baffle edges out of 78383 edges.
Initially selected 1324 points out of 39499 for reverse attraction.
Selected 3369 points out of 39499 for reverse attraction.
Stringing feature edges : changed 16 points
Stringing feature edges : changed 1 points
Stringing feature edges : changed 0 points
Attraction:
     linear   : max:(-0.000987859 -0.00621061 -0.000845454) avg:(3.90052e-07 7.78001e-05 -2.18276e-05)
     feature  : max:(-0.000394451 -0.00690653 -0.00615768) avg:(-1.05089e-06 -2.69951e-05 4.73978e-06)
Feature analysis : total master points:39499 attraction to :
    feature point   : 1
    feature edge    : 761
    nearest surface : 0
    rest            : 38737

--> FOAM Warning : Displacement (5.64648e-06 -0.000146636 -2.92167e-05) at mesh point 689427 coord (4.35473 -0.423738 0.29663) points through the surrounding patch faces
Smoothing displacement ...
Iteration 0
Iteration 10
Iteration 20
Iteration 30
Iteration 40
Iteration 50
Iteration 60
Iteration 70
Iteration 80
Iteration 90
Displacement smoothed in = 3.34225 s


Moving mesh ...

Iteration 0
Moving mesh using displacement scaling : min:1  max:1
Checking faces in error :
    non-orthogonality > 70  degrees                        : 960
    faces with face-decomposition tet quality < 1e-30      : 20
    faces with concavity > 80  degrees                     : 0
    faces with skewness > 4   (internal) or 20  (boundary) : 0
    faces with interpolation weights (0..1)  < 0.05        : 0
    faces with volume ratio of neighbour cells < 0.01      : 0
    faces with face twist < 0.05                           : 5
    faces on cells with determinant < 0.001                : 0

Iteration 1
Moving mesh using displacement scaling : min:0.75  max:1
Checking faces in error :
    non-orthogonality > 70  degrees                        : 960
    faces with face-decomposition tet quality < 1e-30      : 14
    faces with concavity > 80  degrees                     : 0
    faces with skewness > 4   (internal) or 20  (boundary) : 0
    faces with interpolation weights (0..1)  < 0.05        : 0
    faces with volume ratio of neighbour cells < 0.01      : 0
    faces with face twist < 0.05                           : 8
    faces on cells with determinant < 0.001                : 0

Iteration 2
Moving mesh using displacement scaling : min:0.5625  max:1
Checking faces in error :
    non-orthogonality > 70  degrees                        : 960
    faces with face-decomposition tet quality < 1e-30      : 10
    faces with concavity > 80  degrees                     : 0
    faces with skewness > 4   (internal) or 20  (boundary) : 0
    faces with interpolation weights (0..1)  < 0.05        : 0
    faces with volume ratio of neighbour cells < 0.01      : 0
    faces with face twist < 0.05                           : 8
    faces on cells with determinant < 0.001                : 0

Iteration 3
Moving mesh using displacement scaling : min:0.421875  max:1
Checking faces in error :
    non-orthogonality > 70  degrees                        : 960
    faces with face-decomposition tet quality < 1e-30      : 8
    faces with concavity > 80  degrees                     : 0
    faces with skewness > 4   (internal) or 20  (boundary) : 0
    faces with interpolation weights (0..1)  < 0.05        : 0
    faces with volume ratio of neighbour cells < 0.01      : 0
    faces with face twist < 0.05                           : 5
    faces on cells with determinant < 0.001                : 0

Iteration 4
Moving mesh using displacement scaling : min:0.316406  max:1
Checking faces in error :
    non-orthogonality > 70  degrees                        : 960
    faces with face-decomposition tet quality < 1e-30      : 8
    faces with concavity > 80  degrees                     : 0
    faces with skewness > 4   (internal) or 20  (boundary) : 0
    faces with interpolation weights (0..1)  < 0.05        : 0
    faces with volume ratio of neighbour cells < 0.01      : 0
    faces with face twist < 0.05                           : 5
    faces on cells with determinant < 0.001                : 0

Iteration 5
Displacement scaling for error reduction set to 0.
Moving mesh using displacement scaling : min:0.237305  max:1
Checking faces in error :
    non-orthogonality > 70  degrees                        : 960
    faces with face-decomposition tet quality < 1e-30      : 6
    faces with concavity > 80  degrees                     : 0
    faces with skewness > 4   (internal) or 20  (boundary) : 0
    faces with interpolation weights (0..1)  < 0.05        : 0
    faces with volume ratio of neighbour cells < 0.01      : 0
    faces with face twist < 0.05                           : 5
    faces on cells with determinant < 0.001                : 0

Iteration 6
Moving mesh using displacement scaling : min:0  max:1
Checking faces in error :
    non-orthogonality > 70  degrees                        : 960
    faces with face-decomposition tet quality < 1e-30      : 0
    faces with concavity > 80  degrees                     : 0
    faces with skewness > 4   (internal) or 20  (boundary) : 0
    faces with interpolation weights (0..1)  < 0.05        : 0
    faces with volume ratio of neighbour cells < 0.01      : 0
    faces with face twist < 0.05                           : 0
    faces on cells with determinant < 0.001                : 0
Successfully moved mesh
Moved mesh in = 10.5883 s



Morph iteration 8
-----------------
Calculating patchDisplacement as distance to nearest surface point ...
Wanted displacement : average:0.000119549 min:1.42203e-09 max:0.00313096
Calculated surface displacement in = 0.041049 s


Detecting near surfaces ...
Overriding nearest with intersection of close gaps at 123 out of 39499 points.
Overriding displacement on features :
   implicit features    : false
   explicit features    : true
   multi-patch features : false

Detected 115 baffle edges out of 78383 edges.
Initially selected 1324 points out of 39499 for reverse attraction.
Selected 3368 points out of 39499 for reverse attraction.
Stringing feature edges : changed 11 points
Stringing feature edges : changed 0 points
Attraction:
     linear   : max:(-0.00356241 0.00414637 0.000390237) avg:(9.86482e-07 3.14045e-05 -1.04681e-06)
     feature  : max:(-0.000967294 -0.00782828 -2.15491e-05) avg:(-8.12001e-07 -1.04076e-05 1.48784e-06)
Feature analysis : total master points:39499 attraction to :
    feature point   : 1
    feature edge    : 759
    nearest surface : 0
    rest            : 38739

--> FOAM Warning : Displacement (3.21842e-06 -8.09831e-05 -1.44369e-05) at mesh point 689427 coord (4.35474 -0.423885 0.296601) points through the surrounding patch faces
Smoothing displacement ...
Iteration 0
Iteration 10
Iteration 20
Iteration 30
Iteration 40
Iteration 50
Iteration 60
Iteration 70
Iteration 80
Iteration 90
Displacement smoothed in = 3.29053 s


Moving mesh ...

Iteration 0
Moving mesh using displacement scaling : min:1  max:1
Checking faces in error :
    non-orthogonality > 70  degrees                        : 960
    faces with face-decomposition tet quality < 1e-30      : 33
    faces with concavity > 80  degrees                     : 0
    faces with skewness > 4   (internal) or 20  (boundary) : 0
    faces with interpolation weights (0..1)  < 0.05        : 0
    faces with volume ratio of neighbour cells < 0.01      : 0
    faces with face twist < 0.05                           : 38
    faces on cells with determinant < 0.001                : 0

Iteration 1
Moving mesh using displacement scaling : min:0.75  max:1
Checking faces in error :
    non-orthogonality > 70  degrees                        : 960
    faces with face-decomposition tet quality < 1e-30      : 32
    faces with concavity > 80  degrees                     : 1
    faces with skewness > 4   (internal) or 20  (boundary) : 0
    faces with interpolation weights (0..1)  < 0.05        : 0
    faces with volume ratio of neighbour cells < 0.01      : 0
    faces with face twist < 0.05                           : 6
    faces on cells with determinant < 0.001                : 0

Iteration 2
Moving mesh using displacement scaling : min:0.5625  max:1
Checking faces in error :
    non-orthogonality > 70  degrees                        : 960
    faces with face-decomposition tet quality < 1e-30      : 26
    faces with concavity > 80  degrees                     : 1
    faces with skewness > 4   (internal) or 20  (boundary) : 0
    faces with interpolation weights (0..1)  < 0.05        : 0
    faces with volume ratio of neighbour cells < 0.01      : 0
    faces with face twist < 0.05                           : 5
    faces on cells with determinant < 0.001                : 0

Iteration 3
Moving mesh using displacement scaling : min:0.421875  max:1
Checking faces in error :
    non-orthogonality > 70  degrees                        : 960
    faces with face-decomposition tet quality < 1e-30      : 15
    faces with concavity > 80  degrees                     : 1
    faces with skewness > 4   (internal) or 20  (boundary) : 0
    faces with interpolation weights (0..1)  < 0.05        : 0
    faces with volume ratio of neighbour cells < 0.01      : 0
    faces with face twist < 0.05                           : 7
    faces on cells with determinant < 0.001                : 0

Iteration 4
Moving mesh using displacement scaling : min:0.316406  max:1
Checking faces in error :
    non-orthogonality > 70  degrees                        : 960
    faces with face-decomposition tet quality < 1e-30      : 11
    faces with concavity > 80  degrees                     : 0
    faces with skewness > 4   (internal) or 20  (boundary) : 0
    faces with interpolation weights (0..1)  < 0.05        : 0
    faces with volume ratio of neighbour cells < 0.01      : 0
    faces with face twist < 0.05                           : 9
    faces on cells with determinant < 0.001                : 0

Iteration 5
Displacement scaling for error reduction set to 0.
Moving mesh using displacement scaling : min:0.237305  max:1
Checking faces in error :
    non-orthogonality > 70  degrees                        : 960
    faces with face-decomposition tet quality < 1e-30      : 11
    faces with concavity > 80  degrees                     : 0
    faces with skewness > 4   (internal) or 20  (boundary) : 0
    faces with interpolation weights (0..1)  < 0.05        : 0
    faces with volume ratio of neighbour cells < 0.01      : 0
    faces with face twist < 0.05                           : 9
    faces on cells with determinant < 0.001                : 0

Iteration 6
Moving mesh using displacement scaling : min:0  max:1
Checking faces in error :
    non-orthogonality > 70  degrees                        : 960
    faces with face-decomposition tet quality < 1e-30      : 0
    faces with concavity > 80  degrees                     : 0
    faces with skewness > 4   (internal) or 20  (boundary) : 0
    faces with interpolation weights (0..1)  < 0.05        : 0
    faces with volume ratio of neighbour cells < 0.01      : 0
    faces with face twist < 0.05                           : 0
    faces on cells with determinant < 0.001                : 0
Successfully moved mesh
Moved mesh in = 10.6917 s



Morph iteration 9
-----------------
Calculating patchDisplacement as distance to nearest surface point ...
Wanted displacement : average:3.63939e-05 min:4.07225e-10 max:0.00299414
Calculated surface displacement in = 0.039949 s


Detecting near surfaces ...
Overriding nearest with intersection of close gaps at 128 out of 39499 points.
Overriding displacement on features :
   implicit features    : false
   explicit features    : true
   multi-patch features : false

Detected 128 baffle edges out of 78383 edges.
Initially selected 1324 points out of 39499 for reverse attraction.
Selected 3368 points out of 39499 for reverse attraction.
Stringing feature edges : changed 10 points
Stringing feature edges : changed 0 points
Attraction:
     linear   : max:(-0.00451016 0.00388356 0.000227262) avg:(1.20084e-07 8.41817e-06 1.52955e-06)
     feature  : max:(-0.000967294 -0.00782828 -2.15491e-05) avg:(-7.46765e-07 -2.89965e-06 6.21052e-07)
Feature analysis : total master points:39499 attraction to :
    feature point   : 1
    feature edge    : 760
    nearest surface : 0
    rest            : 38738

--> FOAM Warning : Displacement (8.51038e-07 -2.10585e-05 -3.53391e-06) at mesh point 689427 coord (4.35474 -0.423966 0.296587) points through the surrounding patch faces
Smoothing displacement ...
Iteration 0
Iteration 10
Iteration 20
Iteration 30
Iteration 40
Iteration 50
Iteration 60
Iteration 70
Iteration 80
Iteration 90
Displacement smoothed in = 3.26887 s


Moving mesh ...

Iteration 0
Moving mesh using displacement scaling : min:1  max:1
Checking faces in error :
    non-orthogonality > 70  degrees                        : 960
    faces with face-decomposition tet quality < 1e-30      : 55
    faces with concavity > 80  degrees                     : 0
    faces with skewness > 4   (internal) or 20  (boundary) : 0
    faces with interpolation weights (0..1)  < 0.05        : 0
    faces with volume ratio of neighbour cells < 0.01      : 0
    faces with face twist < 0.05                           : 493
    faces on cells with determinant < 0.001                : 0

Iteration 1
Moving mesh using displacement scaling : min:0.75  max:1
Checking faces in error :
    non-orthogonality > 70  degrees                        : 960
    faces with face-decomposition tet quality < 1e-30      : 37
    faces with concavity > 80  degrees                     : 0
    faces with skewness > 4   (internal) or 20  (boundary) : 0
    faces with interpolation weights (0..1)  < 0.05        : 0
    faces with volume ratio of neighbour cells < 0.01      : 0
    faces with face twist < 0.05                           : 496
    faces on cells with determinant < 0.001                : 0

Iteration 2
Moving mesh using displacement scaling : min:0.5625  max:1
Checking faces in error :
    non-orthogonality > 70  degrees                        : 960
    faces with face-decomposition tet quality < 1e-30      : 35
    faces with concavity > 80  degrees                     : 0
    faces with skewness > 4   (internal) or 20  (boundary) : 0
    faces with interpolation weights (0..1)  < 0.05        : 0
    faces with volume ratio of neighbour cells < 0.01      : 0
    faces with face twist < 0.05                           : 494
    faces on cells with determinant < 0.001                : 0

Iteration 3
Moving mesh using displacement scaling : min:0.421875  max:1
Checking faces in error :
    non-orthogonality > 70  degrees                        : 960
    faces with face-decomposition tet quality < 1e-30      : 29
    faces with concavity > 80  degrees                     : 0
    faces with skewness > 4   (internal) or 20  (boundary) : 0
    faces with interpolation weights (0..1)  < 0.05        : 0
    faces with volume ratio of neighbour cells < 0.01      : 0
    faces with face twist < 0.05                           : 493
    faces on cells with determinant < 0.001                : 0

Iteration 4
Moving mesh using displacement scaling : min:0.316406  max:1
Checking faces in error :
    non-orthogonality > 70  degrees                        : 960
    faces with face-decomposition tet quality < 1e-30      : 24
    faces with concavity > 80  degrees                     : 0
    faces with skewness > 4   (internal) or 20  (boundary) : 0
    faces with interpolation weights (0..1)  < 0.05        : 0
    faces with volume ratio of neighbour cells < 0.01      : 0
    faces with face twist < 0.05                           : 465
    faces on cells with determinant < 0.001                : 0

Iteration 5
Displacement scaling for error reduction set to 0.
Moving mesh using displacement scaling : min:0.237305  max:1
Checking faces in error :
    non-orthogonality > 70  degrees                        : 960
    faces with face-decomposition tet quality < 1e-30      : 22
    faces with concavity > 80  degrees                     : 0
    faces with skewness > 4   (internal) or 20  (boundary) : 0
    faces with interpolation weights (0..1)  < 0.05        : 0
    faces with volume ratio of neighbour cells < 0.01      : 0
    faces with face twist < 0.05                           : 41
    faces on cells with determinant < 0.001                : 0

Iteration 6
Moving mesh using displacement scaling : min:0  max:1
Checking faces in error :
    non-orthogonality > 70  degrees                        : 960
    faces with face-decomposition tet quality < 1e-30      : 1
    faces with concavity > 80  degrees                     : 0
    faces with skewness > 4   (internal) or 20  (boundary) : 0
    faces with interpolation weights (0..1)  < 0.05        : 0
    faces with volume ratio of neighbour cells < 0.01      : 0
    faces with face twist < 0.05                           : 0
    faces on cells with determinant < 0.001                : 0

Iteration 7
Moving mesh using displacement scaling : min:0  max:1
Checking faces in error :
    non-orthogonality > 70  degrees                        : 960
    faces with face-decomposition tet quality < 1e-30      : 0
    faces with concavity > 80  degrees                     : 0
    faces with skewness > 4   (internal) or 20  (boundary) : 0
    faces with interpolation weights (0..1)  < 0.05        : 0
    faces with volume ratio of neighbour cells < 0.01      : 0
    faces with face twist < 0.05                           : 0
    faces on cells with determinant < 0.001                : 0
Successfully moved mesh
Moved mesh in = 12.5163 s


Repatching faces according to nearest surface ...
Repatched 0 faces in = 0.093184 s


Edge intersection testing:
    Number of edges             : 2090741
    Number of edges to retest   : 277078
    Number of intersected edges : 38884
Merging 3836 sets of faces.

Edge intersection testing:
    Number of edges             : 2086221
    Number of edges to retest   : 15349
    Number of intersected edges : 34361

Undo iteration 0
----------------
Checking faces in error :
    non-orthogonality > 70  degrees                        : 960
    faces with face-decomposition tet quality < 1e-30      : 2
    faces with concavity > 80  degrees                     : 0
    faces with skewness > 4   (internal) or 20  (boundary) : 0
    faces with interpolation weights (0..1)  < 0.05        : 0
    faces with volume ratio of neighbour cells < 0.01      : 0
    faces with face twist < 0.05                           : 0
    faces on cells with determinant < 0.001                : 0
Masters that need to be restored:2
Edge intersection testing:
    Number of edges             : 2086223
    Number of edges to retest   : 12
    Number of intersected edges : 34363


Undo iteration 1
----------------
Checking faces in error :
    non-orthogonality > 70  degrees                        : 960
    faces with face-decomposition tet quality < 1e-30      : 0
    faces with concavity > 80  degrees                     : 0
    faces with skewness > 4   (internal) or 20  (boundary) : 0
    faces with interpolation weights (0..1)  < 0.05        : 0
    faces with volume ratio of neighbour cells < 0.01      : 0
    faces with face twist < 0.05                           : 0
    faces on cells with determinant < 0.001                : 0
Masters that need to be restored:0

Merging all points on surface that
- are used by only two boundary faces and
- make an angle with a cosine of more than 0.707107.

Removing 3150 straight edge points ...

Edge intersection testing:
    Number of edges             : 2086223
    Number of edges to retest   : 15037
    Number of intersected edges : 34342

Undo iteration 0
----------------
Checking faces in error :
    non-orthogonality > 70  degrees                        : 960
    faces with face-decomposition tet quality < 1e-30      : 0
    faces with concavity > 80  degrees                     : 0
    faces with skewness > 4   (internal) or 20  (boundary) : 0
    faces with interpolation weights (0..1)  < 0.05        : 0
    faces with volume ratio of neighbour cells < 0.01      : 0
    faces with face twist < 0.05                           : 0
    faces on cells with determinant < 0.001                : 0
Detected 0 error faces on boundaries that have been merged. These will be restored to their original faces.

Detected 960 error faces in mesh. Restoring neighbours of faces in error.

Edge intersection testing:
    Number of edges             : 2086223
    Number of edges to retest   : 8806
    Number of intersected edges : 34342
Snapped mesh : cells:671117  faces:2086223  points:745592
Cells per refinement level:
    0	671117
Writing mesh to time constant
Wrote mesh in = 7.13613 s.
Mesh snapped in = 118.763 s.
Layer thickness specified as final layer and expansion ratio.

Shrinking and layer addition phase
----------------------------------

Using mesh parameters 
{
    maxNonOrtho     70;
    maxBoundarySkewness 20;
    maxInternalSkewness 4;
    maxConcave      80;
    minVol          -1e+30;
    minTetQuality   1e-30;
    minTwist        0.05;
    minDeterminant  0.001;
    minFaceWeight   0.05;
    minVolRatio     0.01;
    nSmoothScale    4;
    errorReduction  0.75;
    relaxed
    {
        maxNonOrtho     75;
    }
}



Merging all faces of a cell
---------------------------
    - which are on the same patch
    - which make an angle < 60 degrees
      (cos:0.5)
    - as long as the resulting face doesn't become concave by more than 90 degrees
      (0=straight, 180=fully concave)

Merging 3 sets of faces.

Edge intersection testing:
    Number of edges             : 2086220
    Number of edges to retest   : 15
    Number of intersected edges : 34339

Undo iteration 0
----------------
Checking faces in error :
    non-orthogonality > 70  degrees                        : 960
    faces with face-decomposition tet quality < 1e-30      : 3
    faces with concavity > 80  degrees                     : 0
    faces with skewness > 4   (internal) or 20  (boundary) : 0
    faces with interpolation weights (0..1)  < 0.05        : 0
    faces with volume ratio of neighbour cells < 0.01      : 0
    faces with face twist < 0.05                           : 0
    faces on cells with determinant < 0.001                : 0
Masters that need to be restored:3
Edge intersection testing:
    Number of edges             : 2086223
    Number of edges to retest   : 18
    Number of intersected edges : 34342


Undo iteration 1
----------------
Checking faces in error :
    non-orthogonality > 70  degrees                        : 960
    faces with face-decomposition tet quality < 1e-30      : 0
    faces with concavity > 80  degrees                     : 0
    faces with skewness > 4   (internal) or 20  (boundary) : 0
    faces with interpolation weights (0..1)  < 0.05        : 0
    faces with volume ratio of neighbour cells < 0.01      : 0
    faces with face twist < 0.05                           : 0
    faces on cells with determinant < 0.001                : 0
Masters that need to be restored:0

Merging all points on surface that
- are used by only two boundary faces and
- make an angle with a cosine of more than 0.5.

No straight edges simplified and no points removed ...

Checking mesh manifoldness ...

Checking initial mesh ...
Checking faces in error :
    non-orthogonality > 70  degrees                        : 960
    faces with face-decomposition tet quality < 1e-30      : 0
    faces with concavity > 80  degrees                     : 0
    faces with skewness > 4   (internal) or 20  (boundary) : 0
    faces with interpolation weights (0..1)  < 0.05        : 0
    faces with volume ratio of neighbour cells < 0.01      : 0
    faces with face twist < 0.05                           : 0
    faces on cells with determinant < 0.001                : 0
Detected 960 illegal faces (concave, zero area or negative cell pyramid volume)

Adding in total 0 inter-processor patches to handle extrusion of non-manifold processor boundaries.

Handling points with inconsistent layer specification ...

Handling non-manifold points ...

Checking patch manifoldness ...
Outside of local patch is multiply connected across edges or points at 0 points.
Set displacement to zero for all 0 non-manifold points

Handling feature edges ...

Handling cells with warped patch faces ...
Set displacement to zero on 0 warped faces since layer would be > 0.5 of the size of the bounding box.

patch faces    layers avg thickness[m]
                     near-wall overall
----- -----    ------ --------- -------
hull 34367    3      0.00343   0.0163  

Selecting externalDisplacementMeshMover displacementMedialAxis
displacementMedialAxis : Calculating distance to Medial Axis ...
displacementMedialAxis : Smoothing normals ...
    Iteration 0   residual 0.0113066
displacementMedialAxis : Inserting points on patch atmosphere if angle to nearest layer patch > 30 degrees.
displacementMedialAxis : Inserting points on patch inlet if angle to nearest layer patch > 30 degrees.
displacementMedialAxis : Inserting points on patch outlet if angle to nearest layer patch > 30 degrees.
displacementMedialAxis : Inserting points on patch bottom if angle to nearest layer patch > 30 degrees.
displacementMedialAxis : Inserting points on patch side if angle to nearest layer patch > 30 degrees.
displacementMedialAxis : Inserting points on patch midPlane if angle to nearest layer patch > 30 degrees.
displacementMedialAxis : Smoothing normals in interior ...
    Iteration 0   residual 0.0280251

Layer addition iteration 0
--------------------------

Determining displacement for added points according to pointNormal ...
Detected 0 points with point normal pointing through faces.
Reset displacement at 0 points to average of surrounding points.

displacementMedialAxis : Smoothing using Medial Axis ...
displacementMedialAxis : Reducing layer thickness at 73 nodes where thickness to medial axis distance is large 
displacementMedialAxis : Removing isolated regions ...
displacementMedialAxis : Number of isolated points extrusion stopped : 0
displacementMedialAxis : Smoothing field ...
    Iteration 0   residual 3.19244e-06
displacementMedialAxis : Moving mesh ...
displacementMedialAxis : Iteration 0
Moving mesh using displacement scaling : min:1  max:1
Checking faces in error :
    non-orthogonality > 70  degrees                        : 1180
    faces with face-decomposition tet quality < 1e-30      : 15
    faces with concavity > 80  degrees                     : 0
    faces with skewness > 4   (internal) or 20  (boundary) : 0
    faces with interpolation weights (0..1)  < 0.05        : 0
    faces with volume ratio of neighbour cells < 0.01      : 0
    faces with face twist < 0.05                           : 3
    faces on cells with determinant < 0.001                : 0
displacementMedialAxis : Iteration 1
Moving mesh using displacement scaling : min:0.75  max:1
Checking faces in error :
    non-orthogonality > 70  degrees                        : 1338
    faces with face-decomposition tet quality < 1e-30      : 6
    faces with concavity > 80  degrees                     : 0
    faces with skewness > 4   (internal) or 20  (boundary) : 0
    faces with interpolation weights (0..1)  < 0.05        : 0
    faces with volume ratio of neighbour cells < 0.01      : 0
    faces with face twist < 0.05                           : 0
    faces on cells with determinant < 0.001                : 0
displacementMedialAxis : Iteration 2
Moving mesh using displacement scaling : min:0.5625  max:1
Checking faces in error :
    non-orthogonality > 70  degrees                        : 1453
    faces with face-decomposition tet quality < 1e-30      : 6
    faces with concavity > 80  degrees                     : 1
    faces with skewness > 4   (internal) or 20  (boundary) : 0
    faces with interpolation weights (0..1)  < 0.05        : 0
    faces with volume ratio of neighbour cells < 0.01      : 0
    faces with face twist < 0.05                           : 0
    faces on cells with determinant < 0.001                : 0
displacementMedialAxis : Iteration 3
Moving mesh using displacement scaling : min:0.421875  max:1
Checking faces in error :
    non-orthogonality > 70  degrees                        : 1570
    faces with face-decomposition tet quality < 1e-30      : 6
    faces with concavity > 80  degrees                     : 0
    faces with skewness > 4   (internal) or 20  (boundary) : 0
    faces with interpolation weights (0..1)  < 0.05        : 0
    faces with volume ratio of neighbour cells < 0.01      : 0
    faces with face twist < 0.05                           : 0
    faces on cells with determinant < 0.001                : 0
displacementMedialAxis : Iteration 4
Moving mesh using displacement scaling : min:0.316406  max:1
Checking faces in error :
    non-orthogonality > 70  degrees                        : 1578
    faces with face-decomposition tet quality < 1e-30      : 6
    faces with concavity > 80  degrees                     : 1
    faces with skewness > 4   (internal) or 20  (boundary) : 0
    faces with interpolation weights (0..1)  < 0.05        : 0
    faces with volume ratio of neighbour cells < 0.01      : 0
    faces with face twist < 0.05                           : 0
    faces on cells with determinant < 0.001                : 0
displacementMedialAxis : Iteration 5
displacementMedialAxis : Displacement scaling for error reduction set to 0.
Moving mesh using displacement scaling : min:0.237305  max:1
Checking faces in error :
    non-orthogonality > 70  degrees                        : 1543
    faces with face-decomposition tet quality < 1e-30      : 6
    faces with concavity > 80  degrees                     : 0
    faces with skewness > 4   (internal) or 20  (boundary) : 0
    faces with interpolation weights (0..1)  < 0.05        : 0
    faces with volume ratio of neighbour cells < 0.01      : 0
    faces with face twist < 0.05                           : 0
    faces on cells with determinant < 0.001                : 0
displacementMedialAxis : Iteration 6
Moving mesh using displacement scaling : min:0  max:1
Checking faces in error :
    non-orthogonality > 70  degrees                        : 1390
    faces with face-decomposition tet quality < 1e-30      : 0
    faces with concavity > 80  degrees                     : 0
    faces with skewness > 4   (internal) or 20  (boundary) : 0
    faces with interpolation weights (0..1)  < 0.05        : 0
    faces with volume ratio of neighbour cells < 0.01      : 0
    faces with face twist < 0.05                           : 0
    faces on cells with determinant < 0.001                : 0
displacementMedialAxis : Iteration 7
Moving mesh using displacement scaling : min:0  max:1
Checking faces in error :
    non-orthogonality > 70  degrees                        : 1010
    faces with face-decomposition tet quality < 1e-30      : 0
    faces with concavity > 80  degrees                     : 0
    faces with skewness > 4   (internal) or 20  (boundary) : 0
    faces with interpolation weights (0..1)  < 0.05        : 0
    faces with volume ratio of neighbour cells < 0.01      : 0
    faces with face twist < 0.05                           : 0
    faces on cells with determinant < 0.001                : 0
displacementMedialAxis : Iteration 8
Moving mesh using displacement scaling : min:0  max:1
Checking faces in error :
    non-orthogonality > 70  degrees                        : 988
    faces with face-decomposition tet quality < 1e-30      : 0
    faces with concavity > 80  degrees                     : 0
    faces with skewness > 4   (internal) or 20  (boundary) : 0
    faces with interpolation weights (0..1)  < 0.05        : 0
    faces with volume ratio of neighbour cells < 0.01      : 0
    faces with face twist < 0.05                           : 0
    faces on cells with determinant < 0.001                : 0
displacementMedialAxis : Iteration 9
Moving mesh using displacement scaling : min:0  max:1
Checking faces in error :
    non-orthogonality > 70  degrees                        : 984
    faces with face-decomposition tet quality < 1e-30      : 0
    faces with concavity > 80  degrees                     : 0
    faces with skewness > 4   (internal) or 20  (boundary) : 0
    faces with interpolation weights (0..1)  < 0.05        : 0
    faces with volume ratio of neighbour cells < 0.01      : 0
    faces with face twist < 0.05                           : 0
    faces on cells with determinant < 0.001                : 0
displacementMedialAxis : Finished moving mesh ...
truncateDisplacement : Unextruded 3 faces due to non-consecutive vertices being extruded.
truncateDisplacement : Unextruded 0 faces due to stringed edges with inconsistent extrusion.
truncateDisplacement : Unextruded 0 faces due to non-consecutive vertices being extruded.
truncateDisplacement : Unextruded 0 faces due to stringed edges with inconsistent extrusion.

Setting up information for layer truncation ...

Checking mesh with layer ...
Checking faces in error :
    non-orthogonality > 70  degrees                        : 1481
    faces with face-decomposition tet quality < 1e-30      : 42
    faces with concavity > 80  degrees                     : 0
    faces with skewness > 4   (internal) or 20  (boundary) : 0
    faces with interpolation weights (0..1)  < 0.05        : 1
    faces with volume ratio of neighbour cells < 0.01      : 0
    faces with face twist < 0.05                           : 0
    faces on cells with determinant < 0.001                : 0
Detected 1524 illegal faces (concave, zero area or negative cell pyramid volume)
Extruding 33818 out of 34367 faces (98.4025%). Removed extrusion at 286 faces.
Added 102881 out of 103101 cells (99.7866%).


Layer addition iteration 1
--------------------------

Determining displacement for added points according to pointNormal ...
Detected 0 points with point normal pointing through faces.
Reset displacement at 0 points to average of surrounding points.

displacementMedialAxis : Smoothing using Medial Axis ...
displacementMedialAxis : Reducing layer thickness at 63 nodes where thickness to medial axis distance is large 
displacementMedialAxis : Removing isolated regions ...
displacementMedialAxis : Number of isolated points extrusion stopped : 215
displacementMedialAxis : Smoothing field ...
    Iteration 0   residual 5.22325e-05
displacementMedialAxis : Moving mesh ...
displacementMedialAxis : Iteration 0
Moving mesh using displacement scaling : min:1  max:1
Checking faces in error :
    non-orthogonality > 70  degrees                        : 1231
    faces with face-decomposition tet quality < 1e-30      : 8
    faces with concavity > 80  degrees                     : 0
    faces with skewness > 4   (internal) or 20  (boundary) : 0
    faces with interpolation weights (0..1)  < 0.05        : 0
    faces with volume ratio of neighbour cells < 0.01      : 0
    faces with face twist < 0.05                           : 0
    faces on cells with determinant < 0.001                : 0
displacementMedialAxis : Iteration 1
Moving mesh using displacement scaling : min:0.75  max:1
Checking faces in error :
    non-orthogonality > 70  degrees                        : 1362
    faces with face-decomposition tet quality < 1e-30      : 3
    faces with concavity > 80  degrees                     : 0
    faces with skewness > 4   (internal) or 20  (boundary) : 0
    faces with interpolation weights (0..1)  < 0.05        : 0
    faces with volume ratio of neighbour cells < 0.01      : 0
    faces with face twist < 0.05                           : 0
    faces on cells with determinant < 0.001                : 0
displacementMedialAxis : Iteration 2
Moving mesh using displacement scaling : min:0.5625  max:1
Checking faces in error :
    non-orthogonality > 70  degrees                        : 1464
    faces with face-decomposition tet quality < 1e-30      : 2
    faces with concavity > 80  degrees                     : 0
    faces with skewness > 4   (internal) or 20  (boundary) : 0
    faces with interpolation weights (0..1)  < 0.05        : 0
    faces with volume ratio of neighbour cells < 0.01      : 0
    faces with face twist < 0.05                           : 0
    faces on cells with determinant < 0.001                : 0
displacementMedialAxis : Iteration 3
Moving mesh using displacement scaling : min:0.421875  max:1
Checking faces in error :
    non-orthogonality > 70  degrees                        : 1544
    faces with face-decomposition tet quality < 1e-30      : 2
    faces with concavity > 80  degrees                     : 0
    faces with skewness > 4   (internal) or 20  (boundary) : 0
    faces with interpolation weights (0..1)  < 0.05        : 0
    faces with volume ratio of neighbour cells < 0.01      : 0
    faces with face twist < 0.05                           : 0
    faces on cells with determinant < 0.001                : 0
displacementMedialAxis : Iteration 4
Moving mesh using displacement scaling : min:0.316406  max:1
Checking faces in error :
    non-orthogonality > 70  degrees                        : 1548
    faces with face-decomposition tet quality < 1e-30      : 2
    faces with concavity > 80  degrees                     : 0
    faces with skewness > 4   (internal) or 20  (boundary) : 0
    faces with interpolation weights (0..1)  < 0.05        : 0
    faces with volume ratio of neighbour cells < 0.01      : 0
    faces with face twist < 0.05                           : 0
    faces on cells with determinant < 0.001                : 0
displacementMedialAxis : Iteration 5
displacementMedialAxis : Displacement scaling for error reduction set to 0.
Moving mesh using displacement scaling : min:0.237305  max:1
Checking faces in error :
    non-orthogonality > 70  degrees                        : 1514
    faces with face-decomposition tet quality < 1e-30      : 2
    faces with concavity > 80  degrees                     : 0
    faces with skewness > 4   (internal) or 20  (boundary) : 0
    faces with interpolation weights (0..1)  < 0.05        : 0
    faces with volume ratio of neighbour cells < 0.01      : 0
    faces with face twist < 0.05                           : 0
    faces on cells with determinant < 0.001                : 0
displacementMedialAxis : Iteration 6
Moving mesh using displacement scaling : min:0  max:1
Checking faces in error :
    non-orthogonality > 70  degrees                        : 1188
    faces with face-decomposition tet quality < 1e-30      : 0
    faces with concavity > 80  degrees                     : 0
    faces with skewness > 4   (internal) or 20  (boundary) : 0
    faces with interpolation weights (0..1)  < 0.05        : 0
    faces with volume ratio of neighbour cells < 0.01      : 0
    faces with face twist < 0.05                           : 0
    faces on cells with determinant < 0.001                : 0
displacementMedialAxis : Iteration 7
Moving mesh using displacement scaling : min:0  max:1
Checking faces in error :
    non-orthogonality > 70  degrees                        : 967
    faces with face-decomposition tet quality < 1e-30      : 0
    faces with concavity > 80  degrees                     : 0
    faces with skewness > 4   (internal) or 20  (boundary) : 0
    faces with interpolation weights (0..1)  < 0.05        : 0
    faces with volume ratio of neighbour cells < 0.01      : 0
    faces with face twist < 0.05                           : 0
    faces on cells with determinant < 0.001                : 0
displacementMedialAxis : Iteration 8
Moving mesh using displacement scaling : min:0  max:1
Checking faces in error :
    non-orthogonality > 70  degrees                        : 960
    faces with face-decomposition tet quality < 1e-30      : 0
    faces with concavity > 80  degrees                     : 0
    faces with skewness > 4   (internal) or 20  (boundary) : 0
    faces with interpolation weights (0..1)  < 0.05        : 0
    faces with volume ratio of neighbour cells < 0.01      : 0
    faces with face twist < 0.05                           : 0
    faces on cells with determinant < 0.001                : 0
displacementMedialAxis : Successfully moved mesh
displacementMedialAxis : Finished moving mesh ...
truncateDisplacement : Unextruded 0 faces due to non-consecutive vertices being extruded.
truncateDisplacement : Unextruded 0 faces due to stringed edges with inconsistent extrusion.

Setting up information for layer truncation ...

Checking mesh with layer ...
Checking faces in error :
    non-orthogonality > 70  degrees                        : 966
    faces with face-decomposition tet quality < 1e-30      : 8
    faces with concavity > 80  degrees                     : 0
    faces with skewness > 4   (internal) or 20  (boundary) : 0
    faces with interpolation weights (0..1)  < 0.05        : 14
    faces with volume ratio of neighbour cells < 0.01      : 0
    faces with face twist < 0.05                           : 3
    faces on cells with determinant < 0.001                : 0
Detected 991 illegal faces (concave, zero area or negative cell pyramid volume)
Extruding 33707 out of 34367 faces (98.0796%). Removed extrusion at 27 faces.
Added 96830 out of 103101 cells (93.9176%).


Layer addition iteration 2
--------------------------

Determining displacement for added points according to pointNormal ...
[...]
displacementMedialAxis : Iteration 0
Moving mesh using displacement scaling : min:1  max:1
Checking faces in error :
    non-orthogonality > 75  degrees                        : 109
    faces with face-decomposition tet quality < 1e-30      : 5
    faces with concavity > 80  degrees                     : 0
    faces with skewness > 4   (internal) or 20  (boundary) : 0
    faces with interpolation weights (0..1)  < 0.05        : 0
    faces with volume ratio of neighbour cells < 0.01      : 0
    faces with face twist < 0.05                           : 0
    faces on cells with determinant < 0.001                : 0
displacementMedialAxis : Successfully moved mesh
displacementMedialAxis : Finished moving mesh ...
truncateDisplacement : Unextruded 0 faces due to non-consecutive vertices being extruded.
truncateDisplacement : Unextruded 0 faces due to stringed edges with inconsistent extrusion.

Setting up information for layer truncation ...

Checking mesh with layer ...
Checking faces in error :
    non-orthogonality > 75  degrees                        : 109
    faces with face-decomposition tet quality < 1e-30      : 5
    faces with concavity > 80  degrees                     : 0
    faces with skewness > 4   (internal) or 20  (boundary) : 0
    faces with interpolation weights (0..1)  < 0.05        : 42
    faces with volume ratio of neighbour cells < 0.01      : 0
    faces with face twist < 0.05                           : 0
    faces on cells with determinant < 0.001                : 0
Detected 156 illegal faces (concave, zero area or negative cell pyramid volume)
Extruding 32124 out of 34367 faces (93.4734%). Removed extrusion at 42 faces.
Added 92044 out of 103101 cells (89.2756%).


Layer addition iteration 43
--------------------------
Switched to relaxed meshQuality constraints.

Determining displacement for added points according to pointNormal ...
Detected 0 points with point normal pointing through faces.
Reset displacement at 0 points to average of surrounding points.

displacementMedialAxis : Smoothing using Medial Axis ...
displacementMedialAxis : Reducing layer thickness at 50 nodes where thickness to medial axis distance is large 
displacementMedialAxis : Removing isolated regions ...
displacementMedialAxis : Number of isolated points extrusion stopped : 1
displacementMedialAxis : Smoothing field ...
    Iteration 0   residual 5.70632e-05
displacementMedialAxis : Moving mesh ...
displacementMedialAxis : Iteration 0
Moving mesh using displacement scaling : min:1  max:1
Checking faces in error :
    non-orthogonality > 75  degrees                        : 106
    faces with face-decomposition tet quality < 1e-30      : 5
    faces with concavity > 80  degrees                     : 0
    faces with skewness > 4   (internal) or 20  (boundary) : 0
    faces with interpolation weights (0..1)  < 0.05        : 0
    faces with volume ratio of neighbour cells < 0.01      : 0
    faces with face twist < 0.05                           : 0
    faces on cells with determinant < 0.001                : 0
displacementMedialAxis : Successfully moved mesh
displacementMedialAxis : Finished moving mesh ...
truncateDisplacement : Unextruded 0 faces due to non-consecutive vertices being extruded.
truncateDisplacement : Unextruded 0 faces due to stringed edges with inconsistent extrusion.

Setting up information for layer truncation ...

Checking mesh with layer ...
Checking faces in error :
    non-orthogonality > 75  degrees                        : 106
    faces with face-decomposition tet quality < 1e-30      : 5
    faces with concavity > 80  degrees                     : 0
    faces with skewness > 4   (internal) or 20  (boundary) : 0
    faces with interpolation weights (0..1)  < 0.05        : 42
    faces with volume ratio of neighbour cells < 0.01      : 0
    faces with face twist < 0.05                           : 0
    faces on cells with determinant < 0.001                : 0
Detected 153 illegal faces (concave, zero area or negative cell pyramid volume)
Extruding 32081 out of 34367 faces (93.3483%). Removed extrusion at 42 faces.
Added 91918 out of 103101 cells (89.1534%).


Layer addition iteration 44
--------------------------
Switched to relaxed meshQuality constraints.

Determining displacement for added points according to pointNormal ...
Detected 0 points with point normal pointing through faces.
Reset displacement at 0 points to average of surrounding points.

displacementMedialAxis : Smoothing using Medial Axis ...
displacementMedialAxis : Reducing layer thickness at 50 nodes where thickness to medial axis distance is large 
displacementMedialAxis : Removing isolated regions ...
displacementMedialAxis : Number of isolated points extrusion stopped : 1
displacementMedialAxis : Smoothing field ...
    Iteration 0   residual 5.70332e-05
displacementMedialAxis : Moving mesh ...
displacementMedialAxis : Iteration 0
Moving mesh using displacement scaling : min:1  max:1
Checking faces in error :
    non-orthogonality > 75  degrees                        : 105
    faces with face-decomposition tet quality < 1e-30      : 5
    faces with concavity > 80  degrees                     : 0
    faces with skewness > 4   (internal) or 20  (boundary) : 0
    faces with interpolation weights (0..1)  < 0.05        : 0
    faces with volume ratio of neighbour cells < 0.01      : 0
    faces with face twist < 0.05                           : 0
    faces on cells with determinant < 0.001                : 0
displacementMedialAxis : Successfully moved mesh
displacementMedialAxis : Finished moving mesh ...
truncateDisplacement : Unextruded 0 faces due to non-consecutive vertices being extruded.
truncateDisplacement : Unextruded 0 faces due to stringed edges with inconsistent extrusion.

Setting up information for layer truncation ...

Checking mesh with layer ...
Checking faces in error :
    non-orthogonality > 75  degrees                        : 105
    faces with face-decomposition tet quality < 1e-30      : 5
    faces with concavity > 80  degrees                     : 0
    faces with skewness > 4   (internal) or 20  (boundary) : 0
    faces with interpolation weights (0..1)  < 0.05        : 42
    faces with volume ratio of neighbour cells < 0.01      : 0
    faces with face twist < 0.05                           : 0
    faces on cells with determinant < 0.001                : 0
Detected 152 illegal faces (concave, zero area or negative cell pyramid volume)
Extruding 32038 out of 34367 faces (93.2232%). Removed extrusion at 42 faces.
Added 91792 out of 103101 cells (89.0311%).


Layer addition iteration 45
--------------------------
Switched to relaxed meshQuality constraints.

Determining displacement for added points according to pointNormal ...
Detected 0 points with point normal pointing through faces.
Reset displacement at 0 points to average of surrounding points.

displacementMedialAxis : Smoothing using Medial Axis ...
displacementMedialAxis : Reducing layer thickness at 50 nodes where thickness to medial axis distance is large 
displacementMedialAxis : Removing isolated regions ...
displacementMedialAxis : Number of isolated points extrusion stopped : 1
displacementMedialAxis : Smoothing field ...
    Iteration 0   residual 5.70044e-05
displacementMedialAxis : Moving mesh ...
displacementMedialAxis : Iteration 0
Moving mesh using displacement scaling : min:1  max:1
Checking faces in error :
    non-orthogonality > 75  degrees                        : 103
    faces with face-decomposition tet quality < 1e-30      : 5
    faces with concavity > 80  degrees                     : 0
    faces with skewness > 4   (internal) or 20  (boundary) : 0
    faces with interpolation weights (0..1)  < 0.05        : 0
    faces with volume ratio of neighbour cells < 0.01      : 0
    faces with face twist < 0.05                           : 0
    faces on cells with determinant < 0.001                : 0
displacementMedialAxis : Successfully moved mesh
displacementMedialAxis : Finished moving mesh ...
truncateDisplacement : Unextruded 0 faces due to non-consecutive vertices being extruded.
truncateDisplacement : Unextruded 0 faces due to stringed edges with inconsistent extrusion.

Setting up information for layer truncation ...

Checking mesh with layer ...
Checking faces in error :
    non-orthogonality > 75  degrees                        : 103
    faces with face-decomposition tet quality < 1e-30      : 5
    faces with concavity > 80  degrees                     : 0
    faces with skewness > 4   (internal) or 20  (boundary) : 0
    faces with interpolation weights (0..1)  < 0.05        : 42
    faces with volume ratio of neighbour cells < 0.01      : 0
    faces with face twist < 0.05                           : 0
    faces on cells with determinant < 0.001                : 0
Detected 150 illegal faces (concave, zero area or negative cell pyramid volume)
Extruding 31995 out of 34367 faces (93.098%). Removed extrusion at 42 faces.
Added 91666 out of 103101 cells (88.9089%).


Layer addition iteration 46
--------------------------
Switched to relaxed meshQuality constraints.

Determining displacement for added points according to pointNormal ...
Detected 0 points with point normal pointing through faces.
Reset displacement at 0 points to average of surrounding points.

displacementMedialAxis : Smoothing using Medial Axis ...
displacementMedialAxis : Reducing layer thickness at 50 nodes where thickness to medial axis distance is large 
displacementMedialAxis : Removing isolated regions ...
displacementMedialAxis : Number of isolated points extrusion stopped : 1
displacementMedialAxis : Smoothing field ...
    Iteration 0   residual 5.6976e-05
displacementMedialAxis : Moving mesh ...
displacementMedialAxis : Iteration 0
Moving mesh using displacement scaling : min:1  max:1
Checking faces in error :
    non-orthogonality > 75  degrees                        : 103
    faces with face-decomposition tet quality < 1e-30      : 5
    faces with concavity > 80  degrees                     : 0
    faces with skewness > 4   (internal) or 20  (boundary) : 0
    faces with interpolation weights (0..1)  < 0.05        : 0
    faces with volume ratio of neighbour cells < 0.01      : 0
    faces with face twist < 0.05                           : 0
    faces on cells with determinant < 0.001                : 0
displacementMedialAxis : Successfully moved mesh
displacementMedialAxis : Finished moving mesh ...
truncateDisplacement : Unextruded 0 faces due to non-consecutive vertices being extruded.
truncateDisplacement : Unextruded 0 faces due to stringed edges with inconsistent extrusion.

Setting up information for layer truncation ...

Checking mesh with layer ...
Checking faces in error :
    non-orthogonality > 75  degrees                        : 103
    faces with face-decomposition tet quality < 1e-30      : 5
    faces with concavity > 80  degrees                     : 0
    faces with skewness > 4   (internal) or 20  (boundary) : 0
    faces with interpolation weights (0..1)  < 0.05        : 42
    faces with volume ratio of neighbour cells < 0.01      : 0
    faces with face twist < 0.05                           : 0
    faces on cells with determinant < 0.001                : 0
Detected 150 illegal faces (concave, zero area or negative cell pyramid volume)
Extruding 31952 out of 34367 faces (92.9729%). Removed extrusion at 42 faces.
Added 91540 out of 103101 cells (88.7867%).


Layer addition iteration 47
--------------------------
Switched to relaxed meshQuality constraints.

Determining displacement for added points according to pointNormal ...
Detected 0 points with point normal pointing through faces.
Reset displacement at 0 points to average of surrounding points.

displacementMedialAxis : Smoothing using Medial Axis ...
displacementMedialAxis : Reducing layer thickness at 50 nodes where thickness to medial axis distance is large 
displacementMedialAxis : Removing isolated regions ...
displacementMedialAxis : Number of isolated points extrusion stopped : 1
displacementMedialAxis : Smoothing field ...
    Iteration 0   residual 5.69477e-05
displacementMedialAxis : Moving mesh ...
displacementMedialAxis : Iteration 0
Moving mesh using displacement scaling : min:1  max:1
Checking faces in error :
    non-orthogonality > 75  degrees                        : 103
    faces with face-decomposition tet quality < 1e-30      : 5
    faces with concavity > 80  degrees                     : 0
    faces with skewness > 4   (internal) or 20  (boundary) : 0
    faces with interpolation weights (0..1)  < 0.05        : 0
    faces with volume ratio of neighbour cells < 0.01      : 0
    faces with face twist < 0.05                           : 0
    faces on cells with determinant < 0.001                : 0
displacementMedialAxis : Successfully moved mesh
displacementMedialAxis : Finished moving mesh ...
truncateDisplacement : Unextruded 0 faces due to non-consecutive vertices being extruded.
truncateDisplacement : Unextruded 0 faces due to stringed edges with inconsistent extrusion.

Setting up information for layer truncation ...

Checking mesh with layer ...
Checking faces in error :
    non-orthogonality > 75  degrees                        : 103
    faces with face-decomposition tet quality < 1e-30      : 5
    faces with concavity > 80  degrees                     : 0
    faces with skewness > 4   (internal) or 20  (boundary) : 0
    faces with interpolation weights (0..1)  < 0.05        : 42
    faces with volume ratio of neighbour cells < 0.01      : 0
    faces with face twist < 0.05                           : 0
    faces on cells with determinant < 0.001                : 0
Detected 150 illegal faces (concave, zero area or negative cell pyramid volume)
Extruding 31909 out of 34367 faces (92.8478%). Removed extrusion at 42 faces.
Added 91414 out of 103101 cells (88.6645%).


Layer addition iteration 48
--------------------------
Switched to relaxed meshQuality constraints.

Determining displacement for added points according to pointNormal ...
Detected 0 points with point normal pointing through faces.
Reset displacement at 0 points to average of surrounding points.

displacementMedialAxis : Smoothing using Medial Axis ...
displacementMedialAxis : Reducing layer thickness at 50 nodes where thickness to medial axis distance is large 
displacementMedialAxis : Removing isolated regions ...
displacementMedialAxis : Number of isolated points extrusion stopped : 1
displacementMedialAxis : Smoothing field ...
    Iteration 0   residual 5.69195e-05
displacementMedialAxis : Moving mesh ...
displacementMedialAxis : Iteration 0
Moving mesh using displacement scaling : min:1  max:1
Checking faces in error :
    non-orthogonality > 75  degrees                        : 103
    faces with face-decomposition tet quality < 1e-30      : 5
    faces with concavity > 80  degrees                     : 0
    faces with skewness > 4   (internal) or 20  (boundary) : 0
    faces with interpolation weights (0..1)  < 0.05        : 0
    faces with volume ratio of neighbour cells < 0.01      : 0
    faces with face twist < 0.05                           : 0
    faces on cells with determinant < 0.001                : 0
displacementMedialAxis : Successfully moved mesh
displacementMedialAxis : Finished moving mesh ...
truncateDisplacement : Unextruded 0 faces due to non-consecutive vertices being extruded.
truncateDisplacement : Unextruded 0 faces due to stringed edges with inconsistent extrusion.

Setting up information for layer truncation ...

Checking mesh with layer ...
Checking faces in error :
    non-orthogonality > 75  degrees                        : 103
    faces with face-decomposition tet quality < 1e-30      : 5
    faces with concavity > 80  degrees                     : 0
    faces with skewness > 4   (internal) or 20  (boundary) : 0
    faces with interpolation weights (0..1)  < 0.05        : 42
    faces with volume ratio of neighbour cells < 0.01      : 0
    faces with face twist < 0.05                           : 0
    faces on cells with determinant < 0.001                : 0
Detected 150 illegal faces (concave, zero area or negative cell pyramid volume)
Extruding 31866 out of 34367 faces (92.7227%). Removed extrusion at 42 faces.
Added 91288 out of 103101 cells (88.5423%).


Layer addition iteration 49
--------------------------
Switched to relaxed meshQuality constraints.

Determining displacement for added points according to pointNormal ...
Detected 0 points with point normal pointing through faces.
Reset displacement at 0 points to average of surrounding points.

displacementMedialAxis : Smoothing using Medial Axis ...
displacementMedialAxis : Reducing layer thickness at 50 nodes where thickness to medial axis distance is large 
displacementMedialAxis : Removing isolated regions ...
displacementMedialAxis : Number of isolated points extrusion stopped : 1
displacementMedialAxis : Smoothing field ...
    Iteration 0   residual 5.68904e-05
displacementMedialAxis : Moving mesh ...
displacementMedialAxis : Iteration 0
Moving mesh using displacement scaling : min:1  max:1
Checking faces in error :
    non-orthogonality > 75  degrees                        : 103
    faces with face-decomposition tet quality < 1e-30      : 5
    faces with concavity > 80  degrees                     : 0
    faces with skewness > 4   (internal) or 20  (boundary) : 0
    faces with interpolation weights (0..1)  < 0.05        : 0
    faces with volume ratio of neighbour cells < 0.01      : 0
    faces with face twist < 0.05                           : 0
    faces on cells with determinant < 0.001                : 0
displacementMedialAxis : Successfully moved mesh
displacementMedialAxis : Finished moving mesh ...
truncateDisplacement : Unextruded 0 faces due to non-consecutive vertices being extruded.
truncateDisplacement : Unextruded 0 faces due to stringed edges with inconsistent extrusion.

Setting up information for layer truncation ...

Checking mesh with layer ...
Checking faces in error :
    non-orthogonality > 75  degrees                        : 103
    faces with face-decomposition tet quality < 1e-30      : 5
    faces with concavity > 80  degrees                     : 0
    faces with skewness > 4   (internal) or 20  (boundary) : 0
    faces with interpolation weights (0..1)  < 0.05        : 42
    faces with volume ratio of neighbour cells < 0.01      : 0
    faces with face twist < 0.05                           : 0
    faces on cells with determinant < 0.001                : 0
Detected 150 illegal faces (concave, zero area or negative cell pyramid volume)
Extruding 31823 out of 34367 faces (92.5975%). Removed extrusion at 42 faces.
Added 91162 out of 103101 cells (88.4201%).

Edge intersection testing:
    Number of edges             : 2363966
    Number of edges to retest   : 0
    Number of intersected edges : 125503

patch faces    layers   overall thickness
                       [m]       [%]
----- -----    ------   ---       ---
hull 34367    2.65     0.0143    88      

Layer mesh : cells:762279  faces:2363966  points:841011
Cells per refinement level:
    0	762279
Writing mesh to time constant
Wrote mesh in = 531.629 s.
Layers added in = 531.629 s.
Checking final mesh ...
Checking faces in error :
    non-orthogonality > 70  degrees                        : 1226
    faces with face-decomposition tet quality < 1e-30      : 5
    faces with concavity > 80  degrees                     : 0
    faces with skewness > 4   (internal) or 20  (boundary) : 0
    faces with interpolation weights (0..1)  < 0.05        : 42
    faces with volume ratio of neighbour cells < 0.01      : 0
    faces with face twist < 0.05                           : 0
    faces on cells with determinant < 0.001                : 0
Finished meshing with 1273 illegal faces (concave, zero area or negative cell pyramid volume)
Finished meshing in = 698.83 s.
End

